    26
        -50.47000618  Gyration_radius:  2.45439081819 Dipole_moment: 3.892
 S           0.91591757233075   -1.66697805149704    0.77308271311549
O           1.17516181923819   -1.81093091527925   -0.65022501799685
O           1.98951960727067   -1.03591888876736    1.49795229996526
O          -0.38585082161765   -1.05532966467277    1.03166227082577
O           0.78231894309160   -3.14093598554579    1.35161721374314
H           1.68898717310449   -3.42767545192741    1.37504064860915
H          -0.32792540569547    0.42217595772039    1.67650958978964
O          -0.34374980553573    1.35875321563190    1.99776341234173
H          -0.28386322999439    1.31426361728376    2.95320311890932
O           2.12442492183780    1.52397420130848    0.70709304661129
H           2.28614033716896    0.62235358536130    1.04516744806994
H           1.31309649783326    1.80621170742875    1.15340332615436
O          -2.27093330343637    1.97137194195323    0.21933971940233
H          -2.98695680108885    1.42434654694726    0.54852555356060
H          -1.56304575815958    1.91708375068399    0.89316663979274
O           1.44406573073311    0.63173875068718   -1.68269542494087
H           1.48942062213858   -0.31005971287841   -1.41951379633840
H           1.78642535058130    1.11965301436473   -0.89447501059484
O          -1.41493187926316   -1.77614422655440   -1.26321407986458
H          -1.32749944360549   -1.59499958796390   -0.30604255569973
H          -0.52098998234476   -2.08961836580074   -1.47503697259890
N          -1.13184731592666    0.77709576724243   -1.92348002708873
H          -1.56912574288897    1.33153764092442   -1.15159861555655
H          -1.45023592786700    1.10323761719254   -2.82892777884765
H          -0.05054807203652    0.83132658735494   -1.85378206730645
H          -1.36797509585924   -0.24653306119551   -1.77453565405403
