    26
        -50.46677517  Gyration_radius:  2.43521118068 Dipole_moment: 5.256
 S          -0.34975927445131    0.57658956268736    1.52917067607639
O           0.73259847424334    1.30476976234559    2.13726210701586
O          -1.60441690250621    0.56867862651555    2.22958598162321
O          -0.65192024858824    1.34506842098718    0.12768994776399
O           0.06273348092652   -0.75644515703954    1.07326513685089
H           1.57013685502222   -0.19559439908447    0.55793357920851
H          -0.92636775103540    2.22082016886060    0.46896008810677
O           2.40400302898279    0.05697492312684    0.11138704219509
H           2.75953188135829    0.75463684151976    0.66698249979565
O          -2.20278346448887   -1.18804675728259   -0.20226092432004
H          -2.82497854495890   -0.50246444927010    0.04859786717440
H          -1.46310694133807   -1.09505336772246    0.43170165626139
O           1.35547333809030   -2.65085695153731   -0.37700956801202
H           0.85992604576017   -2.25320860876048    0.35852507125452
H           2.18028919582880   -2.15296423683557   -0.40631389706675
O          -1.19756118041751    3.22254762197805    1.88751318583844
H          -0.31225333390613    3.05476027989061    2.23854641503788
H          -1.74238384838926    2.52947621613023    2.28941576175169
O           0.92964226661122    0.80289460407322   -2.01734880819823
H           0.29963278165088    1.24065731148529   -1.42074665800576
H           1.67525358890714    0.56965968723236   -1.42465464230146
N          -0.32338280080106   -1.50261308532633   -2.09240923131474
H          -0.55517847718309   -1.92840550025936   -2.98281041389552
H          -1.17739462642250   -1.36182990241393   -1.50028001123479
H           0.33840737666721   -2.10401596841618   -1.52612805499214
H           0.16385906046256   -0.55603567296736   -2.20657483662970
