    26
        -50.43998986  Gyration_radius:  2.78146888688 Dipole_moment: 1.912
 S          -1.56360753602770   -2.28249779424212   -1.03450653982111
O          -0.38625189811870   -3.03078086472323   -1.36264127910898
O          -1.82350971855379   -2.05499726150671    0.35209392407943
O          -1.57578884885983   -0.98165335467069   -1.81767804589144
O          -2.79568255967670   -3.06776963408808   -1.63406091925539
H          -2.48576754623825   -3.41955400820660   -2.46493557657972
H          -1.57964781344030   -0.06966652309173   -1.20750595449993
O          -0.26914933494662   -0.26757737267161    1.57695032460798
H          -0.91300701302591   -0.98586755373303    1.46215701079022
O           2.26345647400287    1.91013584607337    0.87295212775191
H           1.63070844917666    2.13954592629018    1.58394127874292
H           2.41218856439316    0.96432090788794    0.95015363561969
O           0.35759928054981    2.08369799372191    2.78527128734728
H           0.46548683295212    2.01317259493652    3.73435903305623
H          -0.01417975343680    1.23631058597371    2.48110764254236
O           0.83902787792535    2.07875742717918   -1.35920663498161
H           1.41593703323630    2.07923634325113   -0.55444592012148
H           0.82228740830614    2.98109152393744   -1.68033315407319
O          -1.42626494610600    1.05070994576463   -0.44255756501791
H          -0.63874208452609    1.49690851775504   -0.84656290115988
H          -1.10576099161477    0.69174258244812    0.41947874717172
N           1.38937489347307   -0.92038190213860   -0.43727921419715
H           0.46575063024012   -0.50638436073248    0.95666446846033
H           1.30628281850930   -0.20418748622595   -1.15219734604974
H           2.35997224807364   -1.21253751563077   -0.41985788629904
H           0.84928754374585   -1.72177455356613   -0.76136052312683
