    26
        -50.46614813  Gyration_radius:  2.55198288016 Dipole_moment: 2.912
 S           0.66169415986432   -0.20592696673565    2.19139490347882
O           0.66203514126423   -1.37068782173440    1.31691449937587
O           1.86915756446057    0.57821592667923    2.09718311664756
O          -0.55664792219446    0.58313662103653    2.02594970846939
O           0.60774454083705   -0.75368238983526    3.67948493534336
H           1.53355814091831   -0.79937598186056    3.89159790661183
H          -0.70748961289956    1.68270967921788    0.85327030352393
O          -0.82299145712385    2.27312402176030    0.06541038154138
H          -1.19693418897918    3.08956517640170    0.39933324656931
O           1.23258543145925   -0.78722466938540   -1.19896398506956
H           1.17306090989345   -1.17255419591940   -0.29893099676609
H           1.65954068534377    0.09369247334403   -1.05253233739394
O          -0.30347223777220   -1.22131952233656   -3.58909026262875
H          -0.00551400952105   -1.64724244622738   -4.39328351988706
H           0.44120703303378   -1.24796677197253   -2.97189350734791
O           1.90438483886436    1.61236711395428   -0.36382070607411
H           1.06005437670026    2.08381020409422   -0.35378002564523
H           2.05052826014896    1.32245056534914    0.55906290867990
O          -1.97471263264194   -1.34338257063889    0.93313669338853
H          -1.77721705917423   -0.57685924702046    1.50456575117178
H          -1.14944426349180   -1.85013606368258    1.00595907983304
N          -1.30444704569545   -0.05718788577749   -1.27729429209707
H          -1.69036191358472   -0.26000320584965   -2.19699597927084
H          -0.27379759312310   -0.34731132801321   -1.29619715705017
H          -1.34032421584374    0.94316773869076   -1.03201119842732
H          -1.75219695074673   -0.62137845353687   -0.49846945698648
