    26
        -50.46734469  Gyration_radius:  2.52244913906 Dipole_moment: 2.306
 S           0.95085624671912   -1.24603451032469    1.84212623657197
O           0.00362757162317   -1.77438044412160    0.85328812529363
O           2.20319447250798   -0.86798696672352    1.22199823307199
O           0.37492452065783   -0.20914648112802    2.66797122494707
O           1.25358888156461   -2.47540519947554    2.79747730757000
H           1.79994772120232   -2.06814657716867    3.46098017773530
H          -2.94117027945566   -0.76845383794414    0.97005611973819
O          -0.52355509853237    1.55403818035245    0.92742276801239
H          -0.16463112677304    1.08377964599703    1.70896153799541
O           1.80288324407275    1.15058626141816   -0.41426432947019
H           2.21101821554172    0.53625937251406    0.23117593054292
H           1.01305659011091    1.48299139902766    0.05989549315925
O          -2.25189193548326   -0.51118220390841    0.35664653195271
H          -1.46081431834453   -1.05433040302738    0.58592828820321
H          -1.28455208501053    1.00357466688125    0.67364170701826
O          -0.65341338363877    2.54296828697945   -1.69762649164007
H           0.28593592630940    2.62348193709898   -1.88090490798219
H          -0.73167561244794    2.51637000746302   -0.73332920713461
O          -1.64027028311276    0.08497653667363   -2.28240614998893
H          -2.12376080870764   -0.12565301298996   -1.46795655549342
H          -1.41826909141183    1.03773194133732   -2.21863623063355
N           0.67028731158375   -0.92297282675597   -1.55987197178840
H          -0.25892968642360   -0.60174924685309   -1.98182235468454
H           1.19873333749184   -1.51404483703937   -2.19074493677719
H           1.22074307134131   -0.05616171503174   -1.27267885698224
H           0.46413661869710   -1.42110995328327   -0.65732767927373
