    26
        -50.46253327  Gyration_radius:  2.44364168789 Dipole_moment: 4.370
 S           1.70016200592781   -1.22026085381776    0.04580492982335
O           1.43289498363693   -0.70278974052070   -1.29150732269988
O           2.54398268742140   -0.37360711840846    0.84242298322561
O           0.43719998978248   -1.53746516122024    0.71943785771965
O           2.45104097460651   -2.59439537730418   -0.16204077281966
H           1.93687544680366   -3.01375081544158   -0.84545944714680
H          -0.07629459321774   -0.54377219857819    1.85660470886597
O          -0.48012871041088    0.10622946360180    2.49259767827036
H          -0.58852685744148   -0.37178877660420    3.31620115652320
O           1.33699188251302    1.92041141757856    1.39600142464956
H           1.97875498845741    1.19517250572320    1.23612460436026
H           0.72857424911725    1.55032622617209    2.05277282782962
O          -2.31635640492708    0.83550312806094    0.67244993701630
H          -2.91482191675008    1.50560785790314    1.00485714461189
H          -1.75007038201451    0.55543957372273    1.42427207890033
O          -0.64766715589707    0.13999141934985   -3.14658508187064
H           0.24137262461234   -0.22392794933739   -3.15966780450320
H          -1.14241924946952   -0.45885774843641   -2.56018962144448
O          -1.62412702072108   -1.37727374822965   -1.03142556457368
H          -0.87104014597134   -1.54046434832992   -0.43552523851224
H          -2.23314092652707   -0.82520131045989   -0.53007024473319
N          -0.03844092615533    1.41809593025559   -0.78585252998474
H           0.48430029693499    0.54175831074179   -1.07955596946087
H          -0.98324883713470    1.16041401181471   -0.44389044068387
H           0.51507415992955    1.83948990488235    0.01759230085164
H          -0.12094117311593    2.01511538683305   -1.60536960423735
