    26
        -50.46519631  Gyration_radius:  2.68369247846 Dipole_moment: 2.382
 S          -0.47694185185130   -2.27271705653448   -0.58487707722593
O           0.24757943311417   -1.13782133391009   -1.16561098794479
O          -1.78260830120410   -2.44422864243245   -1.17926462753548
O           0.36725863947176   -3.56415740073860   -0.95504483624213
O          -0.49349207786290   -2.19918874324464    0.86228397388269
H           0.31926573854075   -1.10375428964140    1.72246116626044
H           0.13982982400033   -3.71732518344387   -1.86728179616757
O           0.73115484865093   -0.32613925509244    2.18050006919716
H           0.89697359326351   -0.60397721661082    3.08196020432470
O           2.15746934354159    2.62093354545025   -0.82392613988792
H           2.27039603086737    1.66598034737120   -0.59302807151262
H           2.85613013445519    3.08760579626606   -0.36424046893769
O           2.37782470841863    0.08826965900281   -0.03418853734154
H           2.02412550713435    0.00288859865889    0.86436219340391
H           1.77130317823812   -0.43438856037542   -0.58814823392342
O          -0.41307186085035    3.26554658499688   -0.73857355968729
H          -0.67384252600985    3.44989507892338   -1.64223563300579
H           0.56383375372799    3.12515950758246   -0.76196324276864
O          -3.00509959201563   -0.76968695806071    0.44168664451868
H          -2.70395608798366   -1.39572785031922   -0.25483816373912
H          -2.92264242181524   -1.26598748737214    1.25964738244747
N          -0.86058378374658    0.81164961672226    0.23244963815052
H          -0.34616943097860    0.73984882391527    1.12014147470744
H          -1.82374203658936    0.41822811031116    0.35715348283743
H          -0.83747004934935    1.79743237660168   -0.12658889330692
H          -0.38352467319291    0.16166193194985   -0.44283599051765
