    26
        -50.47679046  Gyration_radius:  2.36802271149 Dipole_moment: 3.219
 S           1.17483317789052    0.74585392667911   -0.68134441912029
O           1.67627145156219    1.18623286461926   -2.07555859490553
O           1.91663444256035    1.48100153249761    0.32167192025255
O          -0.26403358426338    1.04759434995307   -0.60788003408193
O           1.38214636151820   -0.69750550035690   -0.55767987149108
O          -1.69148310617988   -1.03123496404115    0.29862503122303
H          -1.65026746186150   -1.69557439063296   -0.39876394337524
H          -1.20254995669474   -0.26642657470141   -0.06871217763273
O           0.47385229759457   -1.53811079566801    1.80833107386653
H          -0.44432351070326   -1.54257474902025    1.46184586970014
H           1.01138163782516   -1.40015843059850    1.00260070487967
O          -0.29676116332900   -2.13049831777036   -1.94825040494001
H           0.14553263487365   -2.89999965174932   -2.30917591009326
H           0.38010356758256   -1.65178228661105   -1.40786212442346
O          -1.64539110204903    1.74722920664286    1.58721983922584
H          -2.27371279869771    1.01866536353773    1.56434094144631
H          -1.20914929436562    1.73075420252707    0.71211495033226
O          -0.48306015930435    0.28213102237665   -3.19174002798231
H          -0.51929662969353   -0.66865524336719   -2.96994184544077
H          -0.90407940459374    0.72975294675234   -2.44515458718835
H           0.96204363506350    0.86766897104616   -2.68759963045387
N           0.69851901005136    0.94922711735615    2.55875404286000
H           1.29292058106404    1.26710586882972    1.73671281057558
H           1.09972794702288    1.23149276870222    3.44596190593895
H          -0.26033052019744    1.35309697055730    2.40157337237695
H           0.63047194732837   -0.11528620755590    2.44991109844835
