    26
        -50.44982875  Gyration_radius:  2.40392768157 Dipole_moment: 4.813
 S          -1.41036578411151    0.73659695946549    0.98555567674461
O          -2.15181370040790    0.21483041473625   -0.13936950881610
O          -2.13610015246932    0.99587892504398    2.17249772126163
O          -0.24403163835268   -0.22563718166640    1.29768246320685
O          -0.67764601364811    2.02723840629780    0.54638035087093
H          -0.18822042302045    1.82835638163863   -0.30986130839919
H          -0.09348381947345   -0.98743348099613    0.57638983990057
O           0.70284374898227    1.48729482323813   -1.55632807835073
H           1.13241988223031    2.28915931601494   -1.85919653774779
O          -2.41174723146003   -2.31884400170486    0.74049295873041
H          -2.71059182648602   -2.28803112590470    1.65022820423331
H          -2.54423302329793   -1.42633731223628    0.37809678662613
O          -0.89314798069634   -0.62275819149259   -2.37811735294462
H          -0.29707352048370    0.13633726524634   -2.43966026819415
H          -1.60689694675976   -0.32557965114273   -1.78918106686351
O           0.04038405106354   -2.04113462271760   -0.38165023567114
H          -0.24353260889113   -1.62301674025544   -1.24273826022248
H          -0.73278062941611   -2.55140418478363   -0.08040851897817
O           1.86525614625704    1.40276427969325    2.02606962941065
H           1.11930677342292    0.78620278614475    2.03107332060994
H           1.47548940882583    2.27917649222347    2.04410337204930
N           2.48800204984514   -0.01608510226625   -0.44167832438714
H           1.44038486073285    0.88663638977354   -1.15784401616816
H           2.56011013812142    0.40839682325694    0.48235777692845
H           2.09855035909523   -0.94495777435170   -0.32792275228793
H           3.41891789034560   -0.10764988328734   -0.82697188155805
