    26
        -50.47165511  Gyration_radius:  2.51586320208 Dipole_moment: 0.600
 S          -0.43668824909867   -1.93088176624662    0.40341248032601
O           0.23280079827558   -1.30719426703055   -0.73722216929755
O           0.02763585450815   -1.38630990682041    1.66191665778681
O          -1.87562697737362   -1.92000484782647    0.24573613407726
O           0.00474205830212   -3.45062021381398    0.39833565882991
H          -0.47247231399819   -3.79436054220744   -0.34929381174677
H          -2.35533727647566   -0.40187033187481    0.01491719275433
O          -2.57443771141323    0.55817973573832   -0.09908523965894
H          -3.52632600295868    0.62416464551655   -0.00470253057969
O          -0.63646466672933    1.22920124146086    1.71327161110444
H          -1.41335613698866    1.19957850165821    1.12750145865509
H          -0.48715104875479    0.30356133829967    1.97748744378709
O           1.05867907397365    2.43510586150751   -2.13580766491952
H           0.34021200542180    1.79368855157625   -2.35822793941511
H           0.66642733409957    3.30732859474169   -2.18850863962127
O           2.64179760976584   -0.75529242439008    1.76085633662738
H           3.09223240400494   -1.25258851103182    2.44375606057524
H           1.71149055764513   -1.05655636243082    1.77433452209938
O          -0.89243610835315    0.62732801604591   -2.31291413201113
H          -1.59822987182356    0.80746904791782   -1.67266380532084
H          -0.46963164481258   -0.17950484273896   -1.97559645561738
N           1.41851141159119    0.93424671041153    0.05773297153405
H           1.05599659860841    0.02700241703932   -0.32826333186342
H           2.28269443607347    0.71814835708194    0.56021788479998
H           1.52100538104682    1.61571695311680   -0.72292253575835
H           0.68393246551118    1.25446405442644    0.74573184273417
