    26
        -50.45594800  Gyration_radius:  2.46557029307 Dipole_moment: 6.548
 S           0.45835475772977   -0.57708255739822    2.03419496788109
O          -0.52295122697481   -1.09936545620252    2.95211151069793
O           1.82141021062958   -0.55075615341708    2.47543256594347
O           0.42446360644279   -1.61845037882243    0.77213801839797
O           0.04918797101539    0.67772469232796    1.39280920407749
H          -0.66309076759629    1.51111008065241    0.08284296200906
H           0.19637551780972   -2.46472292715647    1.14585819065355
O          -0.84338156531613    1.82761513567260   -0.82636464931774
H          -0.09285723297541    2.42373162302033   -1.02471848233264
O           2.14449745175326    0.36416672217810   -0.11299958324695
H           1.39942818489528    0.52513890878326    0.51363362348079
H           2.79034192157073   -0.07854253582987    0.44571301908369
O          -2.43305899493520   -0.78001003181110    1.18149050368085
H          -2.36195848099429    0.16523711752100    1.02551332492883
H          -1.81493683995756   -0.95524122772421    1.92569509255972
O           1.63861143003890    2.87054639671802   -1.12119841105139
H           2.00902913716219    2.01560158082881   -0.83615067758914
H           1.90392520826596    3.51142731062303   -0.45951295841824
O          -1.83422157356261   -2.08181369208701   -1.04068497876278
H          -2.03259640581016   -1.67488310627730   -0.15780602104370
H          -2.66759443107887   -2.08779104434529   -1.51490931720364
N           0.09575186616712   -0.40030742580069   -1.80081318798526
H          -0.57777769781344   -1.16537116197179   -1.52716069794152
H           0.33788952683342   -0.44085522349210   -2.78477397582374
H          -0.36810715581042    0.53819732824108   -1.53486839048941
H           0.94326557245441   -0.45530397422026   -1.20547166223372
