    26
        -50.45147862  Gyration_radius:  2.46484256339 Dipole_moment: 6.099
 S           0.72719795017009   -2.16286374451905    0.73493811396778
O          -0.22922729246240   -1.23102800564675    1.29511204661746
O           0.49884760004434   -3.53153904095058    1.01498540424324
O           0.79968106771420   -1.90312751397984   -0.79794709663488
O           2.14309952135500   -1.74540667921886    1.16111779239595
H           2.25455446399571   -0.82132157042661    0.78348658652173
H          -0.10137717975532   -1.69134757683024   -1.19571792606336
O           2.34991342339015    0.58427990945100    0.08880992542387
H           3.15846879209998    0.57349410373418   -0.42629672327175
O           0.45724200675985    1.25396219772816    2.07159060657359
H           0.17818211726289    0.32573043356804    1.96087703619601
H           1.30778121824827    1.31151567537803    1.62117212075493
O          -1.38342845686846    2.32532665611564    0.50590466370565
H          -1.88265872763358    3.00019028852557    0.96732915176854
H          -0.69679037499781    2.00087217375608    1.14561387500656
O          -1.46956601609556   -1.27676480586927   -1.81629955097378
H          -1.98322668279607   -2.06025275551329   -2.02041807366704
H          -1.95124743895092   -0.81325413543037   -1.06079337037852
O          -2.49110272688054   -0.16615912126437    0.27523760855596
H          -2.23377507294952    0.77658210162326    0.29540722145982
H          -1.84719808637423   -0.60957076656976    0.85346008409792
N           0.41955649997226    1.19887312689971   -1.57147387723121
H          -0.26300369610508    1.71027362489405   -1.01815993041408
H           0.69459687554813    1.79158985275755   -2.34464073261390
H           1.59160494302347    0.77503307756565   -0.56990989338346
H          -0.04812473775885    0.38491248425112   -1.95338505271844
