    26
        -50.46114366  Gyration_radius:  2.3937743909 Dipole_moment: 7.788
 S          -0.12341961606780    1.55980598786775    0.41933176590189
O           0.11135873124709    0.27719927126532    1.09496315054830
O           0.45212601418333    2.67482609747537    1.11357110266111
O           0.62866447216247    1.40030439169346   -0.98686188227096
O          -1.51472464544658    1.70334171688911    0.03875490708534
H          -2.45332756713258    0.55273954757801   -0.42420153216550
H           1.55523914348054    1.07841650918481   -0.74302992668464
O          -2.94744173560532   -0.20752820158176   -0.85579637893680
H          -3.72037839829096    0.18576741849839   -1.26362362919727
O           2.82656838100522    0.35356112319734   -0.23152160572973
H           2.87089061959493    0.73058630192576    0.68716815371672
H           2.66027539638941   -0.58924510437934   -0.13224573289367
O           0.79791699422855   -1.96030353971745   -0.02349524216094
H           0.67080201319272   -1.10905238995268    0.47234563369353
H           0.18965936081157   -2.56086700285583    0.42798864652428
O          -1.70292477414095   -1.81910018288476    1.13101851648767
H          -2.46126238771868   -1.50291356377790    0.62982195966761
H          -1.20766228623433   -1.01966141004735    1.36936152173878
O           2.46000327317502    1.36022160741952    2.16542920926892
H           1.78559460961664    2.00580539081764    1.85553962732661
H           1.95617823822750    0.70376178436938    2.65361897652101
N          -0.57570335820837   -0.77843296643557   -1.91281279320622
H          -0.15062927305632    0.16620576707243   -1.73823858562768
H          -0.48231826701257   -1.05834532417704   -2.88363284230131
H          -0.04170383115018   -1.43200296223174   -1.24897895560035
H          -1.58378109724521   -0.71509027723878   -1.61447406436729
