    26
        -50.45601767  Gyration_radius:  2.46276830151 Dipole_moment: 7.090
 S          -0.67145205706008    0.74912687910807   -1.73471561063410
O          -1.97090925822603    0.67593171035973   -1.07534232509609
O          -0.60818656723584    1.57762017229412   -2.88809814855392
O           0.30683955187243    1.38756328394111   -0.61152979785135
O          -0.08879654409844   -0.58445527648237   -1.90897915389409
H          -0.45732238307833   -1.77812490438027   -0.89589396689812
H          -0.21470769645501    2.16102495091196   -0.30196734943322
O          -0.42866234148643   -2.45193760891298   -0.16403479064781
H          -0.27043601493139   -3.29511437130183   -0.59113698913553
O           0.54147687299743    0.03432842222251    3.02913211340473
H           0.26082890905589    0.10710097793588    3.94108467375427
H          -0.27514559105611   -0.00216760826794    2.48758341848013
O          -1.53690677952493   -0.31730398855314    1.32750514766302
H          -1.76058223944019    0.08579587796737    0.45872252500360
H          -1.51618907779865   -1.26267056266477    1.14584020500941
O          -1.63029163198960    2.97431359258214    0.12162484825565
H          -2.06526211940717    2.28330388639599   -0.41763001575964
H          -1.91942289390150    2.82652006105458    1.02583408791605
O           2.56844106265902   -0.78976193216517   -1.75926523388237
H           1.60681072413561   -0.73605218294975   -1.95184745135876
H           2.98860474213225   -0.18786673088818   -2.37448679265511
N           1.45701248119321   -0.70332304877987    0.65266797811963
H           1.61298848374140   -0.54847172462029    1.65622311702066
H           2.29243256693896   -0.83290386007602    0.06105730219167
H           0.80747851396554   -1.51089740626841    0.50099933915066
H           0.97135927699097    0.13842140156015    0.26665285983947
