    26
        -50.47071322  Gyration_radius:  2.41590674694 Dipole_moment: 4.166
 S           1.04114517633480   -1.73251164555087    0.16546322265418
O          -0.34459134131855   -2.15451205611437    0.04323794496826
O           1.53912078222095   -1.00177178684454   -0.97480827031079
O           1.27438114954496   -1.01433444212171    1.42003407299827
O           1.89646059425907   -3.06219248141065    0.25117521224375
H           1.39796519515524   -3.58555695040957    0.86931622952292
H          -0.24439484716719   -0.76245149500927    2.18390177461072
O          -1.22093729416572   -0.81449717709466    2.17532349844064
H          -1.36965752578020   -1.50086647571608    1.50630908838740
O           2.39756588973902    1.14509672615733    0.49013120193554
H           2.75480687920931    0.72155084546068   -0.29857459890581
H           2.03725111116413    0.38354035102895    1.00118125071738
O          -1.97802892879818    1.30609288592124    0.87994348798029
H          -2.65833257655842    1.75565892138751    1.38232276147051
H          -1.69570318309243    0.52110668873937    1.43575413026107
O           0.05016590410197    0.57010099629716   -2.52618340153075
H          -0.82374563431257    0.15437478592702   -2.33348104123925
H           0.69462954300034   -0.07340505194255   -2.16795980499702
O          -2.02428680912092   -0.54275205559930   -1.32630785760630
H          -1.48217834878993   -1.23677649661855   -0.90449868867306
H          -2.23703776734434    0.08910744840740   -0.62662431272536
N           0.19283376253832    2.19729898770871   -0.52010970969323
H           0.22909457914734    3.19052816511498   -0.71960945948953
H          -0.62996468457174    1.96752005395552    0.06974860961655
H           0.11888056593576    1.60886997239246   -1.43657408981381
H           1.08455782870717    1.87078128593021   -0.03911125085776
