    26
        -50.47679052  Gyration_radius:  2.36807865251 Dipole_moment: 3.215
 S           0.81160990129395   -0.89493111972380   -0.96950698220854
O           0.73011116379652   -1.53111651664810   -2.37581758843161
O           1.06846295395058    0.53663600228623   -1.13137085424572
O          -0.49075483977730   -1.09327273782157   -0.31286789423772
O           1.87403411415871   -1.54988331386391   -0.23530142246675
O          -1.43205142799495    1.16597085650338    0.77787510385010
H          -1.13238620612406    0.33284867687097    0.35971599746009
H          -1.65497282879954    1.73734612324083    0.03409970985424
O           1.15446461481442    1.71113544366295    1.26521584315045
H           0.17387102382711    1.73253436098166    1.29745489753264
H           1.33759489152263    1.44369198781490    0.34211987053958
O          -0.92627166313546   -1.43527299551405    2.31540905757244
H          -1.50611021291767   -0.67676196494664    2.43575596784434
H          -0.86128231026433   -1.55087078616114    1.34652048290394
O          -1.00007134741750    1.89419596488595   -1.95814188129524
H          -0.72249569395013    2.58423722738756   -2.56215732353836
H          -0.17275549668551    1.44250832500598   -1.65656549166986
O          -1.68156782780384   -0.63340352647116   -2.69735514994419
H          -1.78852120961032   -0.96080625924576   -1.79387337019570
H          -1.61743307772085    0.33749976019450   -2.60894203956931
H          -0.16110429312864   -1.24378018411989   -2.70656033434430
N           1.62073068460179   -0.67729777522726    2.20285370013170
H           1.52911664647321    0.36853721791197    1.98521969708612
H           2.32984020076831   -0.87590668940433    2.89956080814280
H           0.67047321636820   -1.03514904641098    2.47921569007797
H           1.84746903376253   -1.12868904118331    1.26744350600122
