    26
        -50.47044865  Gyration_radius:  2.42966568172 Dipole_moment: 3.687
 S           2.16193861798749   -0.40087219862446   -0.09021268267469
O           1.31757824431341   -1.03050891289140    0.91771408672290
O           2.83319446580824    0.77534177154111    0.38593116483192
O           3.30181910704539   -1.45015741204987   -0.45000313462934
O           1.41175082890462   -0.19175744507507   -1.32776757321271
H           0.05839161623689   -0.98370225959933   -1.62849482026243
H           4.08025635588799   -0.99686888782046   -0.14286851196617
O          -0.83220523385781   -1.37114998547578   -1.84834550396120
H          -0.72921896307878   -1.78562469057630   -2.70595065642403
O           0.47462887890468    1.25760095482812    1.87276108411980
H           0.80366435809513    0.37636397662429    1.58263165050003
H           1.24221351204901    1.68823249038538    2.25526001396769
O          -1.13603300640713   -2.11427742503747    0.86600950968989
H          -0.20116352127252   -1.87732043612934    1.00988911809647
H          -1.23122141539282   -2.12909367108631   -0.09522968274658
O           0.29345454635837    2.14501307110336   -0.70472129850730
H           0.41890280574027    2.08607265473265    0.26207815704806
H           0.86915161460664    1.44189515336416   -1.06212542664641
O          -2.12390196208273    0.21845382802994    1.63916553082615
H          -1.33525403009360    0.65713696082398    1.99078178303064
H          -1.86043917124771   -0.72779905549917    1.51210854852403
N          -1.99305592827056    0.89058528015762   -0.86917881329122
H          -2.16936453702803    0.65261773828284    0.17075818359704
H          -2.79280581704122    1.34345682615870   -1.29532733212734
H          -1.12038178907366    1.51456482575332   -0.88429414599517
H          -1.74189956710393    0.01179683811360   -1.36056922848302
