    26
        -50.45417539  Gyration_radius:  2.41750128574 Dipole_moment: 2.718
 S          -1.21185667662022    1.38685410647144    0.53567220533805
O          -0.77949849910044    1.93694063161896    1.78748401932960
O          -2.26395580856703    2.02894183884966   -0.17640282865881
O           0.05424944453137    1.31607558789589   -0.37161812077304
O          -1.60317357870776   -0.09031185822576    0.71652172390877
H          -0.79124044750817   -0.66112140142372    1.07236171045689
H          -0.34821771574143    1.06196039888012   -1.28033563254234
O          -1.26523898508107    0.62019989539916   -2.37564104641839
H          -2.02200962088759    1.11511116602399   -2.03380429057401
O           2.78367917491804    0.94136955142405    0.13748386402196
H           2.61754183402107    0.87129144175379    1.08895133061526
H           2.06104328591271    1.48653408612742   -0.19469543536268
O           0.39720069612052   -1.39266921210593    1.41880858712014
H           0.87839564292941   -1.47063339599891    0.55804208511429
H           0.90387475236022   -0.74817435366554    1.95173162607241
O           1.44784261198114    0.80502219711972    2.59209422926326
H           0.64488222340405    1.30936813273104    2.31783883223978
H           1.57216728855573    0.98816010708321    3.52487174031465
O           1.62806133990863   -1.23457093641344   -0.93092314782591
H           1.13587975902209   -0.85318279203642   -1.66141416573391
H           2.23005988465352   -0.52179551643480   -0.61649217095508
N          -1.61871506349297   -1.91157609472967   -1.61267521398928
H          -2.27066786290995   -2.53051494256594   -2.07742900759248
H          -0.74923647717275   -2.41456390777477   -1.48068437489807
H          -1.44516199036124   -0.34805460014683   -2.19710338068130
H          -1.98590522211155   -1.69066011973312   -0.69264312755735
