    26
        -50.47460347  Gyration_radius:  2.4195735679 Dipole_moment: 1.180
 S          -1.84518039637227   -0.09543971619870    0.74533219113951
O          -1.89897446506812   -0.12025838126791   -0.71520523458407
O          -1.01131532298950   -1.14016207068282    1.28797683832149
O          -1.51240447006855    1.22942934229665    1.24425947585493
O          -3.31795356362650   -0.39021551398657    1.24408888755541
H          -3.76075380972075    0.42435143827793    1.03194435026710
H          -0.13201172330957    1.01428502999496    2.12235795006835
O           0.66747835184025    0.63829642193162    2.55551501919806
H           0.37643492620575   -0.23925304097387    2.82494584202894
O           1.50696876549754    1.02568410678432   -1.73244192144819
H           1.09437634023816    0.22939338807190   -2.10835178261800
H           0.75390005866815    1.64280572412736   -1.58288362442256
O          -0.78258702520720    2.26609273961849   -1.16526536381882
H          -1.29294375214017    1.43489448577642   -1.17674768853720
H          -0.84286014557421    2.54727609841292   -0.24587489010961
O           1.04338916078288   -2.32807316578581    0.07817750268443
H           0.77178588457743   -2.19257981387718   -0.84491275554314
H           0.25255954706158   -2.07906809560521    0.59922492841362
O          -0.04019961517359   -1.22725086558316   -2.18893822373730
H          -0.45846201379475   -1.52701116777520   -2.99724623234474
H          -0.76432400643849   -0.84797653123020   -1.63249287854290
N           2.26607377639841   -0.04314168918064    0.53985627246270
H           1.92137288213909   -1.03998345715401    0.38239610756111
H           1.71147190596210    0.33951900671295    1.35489274721987
H           3.26080216717568   -0.01769839678177    0.73264443054451
H           2.03335653293647    0.49608412406976   -0.35325193761832
