    26
        -50.46591988  Gyration_radius:  2.56449085526 Dipole_moment: 0.948
 S           1.75186199367489   -1.64390520000080    0.52643837878069
O           0.95547871624998   -2.70089694815648    1.11147698854060
O           1.57370353325213   -1.43883938682146   -0.88476204298878
O           1.59342711038117   -0.37569279899446    1.26490277399432
O           3.26942568606617   -2.07206568575872    0.75608671852672
H           3.20949186876547   -2.62383196285991    1.52969833225385
H           1.55954782245363    0.71323073931644    0.08004062026649
O           1.44523337817002    1.31332184342391   -0.70068630621538
H           2.22829257409062    1.17241596851571   -1.23592375056960
O          -0.89480575155608    2.49366461913025    0.36892383270724
H          -0.95945151030860    1.78850313797766    1.03725763072245
H          -0.00483354800572    2.41044374878147    0.00349108199925
O          -2.49412523732177    1.82360011170361   -1.62832406848735
H          -1.96417004391258    2.22861471364430   -0.89497396827947
H          -3.35749121262820    1.63187804851089   -1.25948172902304
O          -0.78632906900800    0.31303219800956    2.06252552288716
H          -0.81321811427204    0.33625038399790    3.01993660046771
H           0.13984979408639    0.05532944704624    1.81898761700727
O          -1.30965994465969   -1.67559418733525    0.24560411682725
H          -1.41527048581066   -1.02667360543538    0.96132366330592
H          -0.53344689221673   -2.21407195552822    0.51190835915891
N          -0.64758972217573   -0.09847727198616   -1.76352893078606
H          -0.41619065443471   -0.60186831082115   -2.61283884568687
H          -1.42905643920118    0.59124571897751   -1.88911888780005
H          -0.90818184423130   -0.80339153953183   -1.00463689188481
H           0.20750800256823    0.40377817419483   -1.42432683572672
