    26
        -50.46815420  Gyration_radius:  2.47591068826 Dipole_moment: 5.888
 S           0.46138581334837   -0.94936467622233    0.41703009029173
O           0.70229917383292   -0.83076021004427   -1.01512138084739
O           1.27164648752778   -2.14612354641470    0.95853640200462
O           0.85954537906396    0.25204116144121    1.13857387121385
O          -0.95193151371784   -1.25839662967138    0.67241961066832
O          -0.82666572685718    1.22700792024120   -1.80428270792023
H          -1.67529379782282    0.75907987833544   -1.77503171586827
H          -0.15964252272555    0.52928528770546   -1.65705514538626
O          -0.55164912768068    2.39329935731205    0.53578836829940
H          -0.61910319757197    2.21178287785109   -0.43561286692107
H           0.14845557562768    1.77080044869251    0.83407820864679
O          -2.81616812228655   -0.60883492534558   -1.12782236902924
H          -2.11302889590905   -1.00158570510283   -0.56812494298838
H          -3.00306843333817   -1.25290449437611   -1.81213694189081
O           3.28908487483229   -0.45103898120167   -1.43010005441039
H           3.57448985503774   -1.09980061798435   -2.07542576475753
H           2.31339453423514   -0.53737193423543   -1.36828656494621
O           3.37057922365413   -0.71624807971295    1.23229247759259
H           2.74258204495543   -0.00773195900443    1.43823733441998
H           2.17691415347520   -1.74548736049922    1.12742219530792
H           3.60346601396440   -0.58273901632849    0.28908713170133
N          -2.39613667094670    0.81671659885857    1.31148220129539
H          -3.12381789190147    0.73308665830964    0.60152825801902
H          -2.78974674411001    0.93402956044688    2.23835726740001
H          -1.80650460322320   -0.06584441437898    1.24042124826406
H          -1.68108586146330    1.62710280133227    1.03374580983871
