    26
        -50.45296191  Gyration_radius:  2.486588435 Dipole_moment: 4.143
 S          -0.64489534809413    1.75797805138165    0.39397775556091
O          -1.20877142514384    1.30302211439453   -0.86304707505975
O          -1.51345887093030    1.66812373832316    1.51757455637144
O           0.64736563150843    0.95877001751373    0.64708460549296
O          -0.12508257108099    3.18829748187800    0.22785784764755
H           0.34814050649005    3.16102286412215   -0.66623628901062
H           0.66594476005598    0.02845503483351    0.17641821024433
O           0.74541936253980   -1.28840522142397   -0.47385676891338
H          -0.16564664279993   -1.43899350289686   -0.78573622878398
O          -1.93502382377488   -1.21136935175331   -0.99674336309686
H          -2.53930669646409   -1.39623784809702   -1.71741761618005
H          -1.78641574748390   -0.23939749311274   -0.99391493098233
O           2.54121110245843    0.60033246452099   -1.56016485817664
H           2.01961577563483   -0.20363769034520   -1.42128381813608
H           2.90874357550138    0.82519440581640   -0.70240360233553
O           0.82979898178992    2.63507387748864   -2.06423208963612
H           1.55075571966245    1.97151636232800   -1.98479162463610
H           0.02121253570037    2.12546429480548   -2.20534640531036
O          -1.77789435899473   -1.05919791872086    1.85229395718285
H          -1.76862143496221   -0.09276356852912    1.92386352421644
H          -2.06487048067656   -1.25756514600083    0.95191780374370
N           0.68661520761468   -2.48452357173956    1.84047898863919
H           1.36843843286702   -2.17321234784029    2.51988874252984
H           0.82576469175364   -1.84561360890222    0.37120834896401
H           0.58005587686427   -3.48593559944886    1.93790050267466
H          -0.20909475993961   -2.04639784857641    2.07470983692529
