    26
        -50.46794777  Gyration_radius:  2.40380605127 Dipole_moment: 8.211
 S           1.06358933791601   -1.21053946017010    0.60048806798145
O           0.36257449380752   -1.55712011003711   -0.63467065827587
O           2.38861278852104   -0.70314901932808    0.38996825518012
O           0.23188758306567   -0.25666675485190    1.37835030062132
O           1.16074082011849   -2.49648543970014    1.46881398988289
H           0.22666621556488   -2.73873242928666    1.63258062166384
H           0.42417464217739    1.29338924534901    1.03868649297758
O           0.41536682783389    2.24925938656586    0.75898092475933
H           0.54615229671392    2.75864536271010    1.55972569843478
O           2.40406751288444    1.49091504146563   -1.11687199252134
H           2.61172320568095    0.68072983791104   -0.60745896484629
H           1.89418912726637    2.03784791722701   -0.50459775919920
O          -1.44984111693851   -2.75617125205199    1.98239439465466
H          -1.91654843776314   -2.17789759142116    1.35608654036351
H          -1.51878980500999   -2.33962265273727    2.84454911557177
O           0.50388955783832    0.30823285124549   -2.48645010615929
H           1.31684180387552    0.79211803318916   -2.18660301364746
H           0.51038380762633   -0.51535645229405   -1.94543097829275
O          -1.96936102530596   -0.69462384392140    0.15138156625370
H          -1.46894594620917   -1.25521566621979   -0.46917193176215
H          -1.23667467288499   -0.42853036646760    0.76821850095550
N          -1.33279942829876    1.53361722790224   -1.20113264230507
H          -1.82742070936419    0.74462657430776   -0.71646738389424
H          -1.96968488790214    2.13310008750248   -1.71248648497438
H          -0.79712994262086    2.05733711137140   -0.48645952619789
H          -0.57366407859225    1.05029237174094   -1.86242302722551
