    26
        -50.47026231  Gyration_radius:  2.45508788915 Dipole_moment: 3.217
 S           1.34503610400686    0.99444061854931    0.70826966585666
O           1.73234309446948    0.68221712318412    2.06257352956994
O           1.82289811275107    0.05445661253274   -0.28602767783376
O          -0.09606327408471    1.21414597627966    0.57705634964544
O           2.03941925475904    2.38172081367942    0.36350162653470
H           2.19662956917143    2.78264921899293    1.21257146212043
H          -0.84951074053799   -0.22860210520731    1.23687844520239
O          -1.15262904240732   -1.15001141209894    1.34432133923027
H          -0.49714862794864   -1.55138671725835    1.94993076064757
O           1.06096681428658   -1.80350426113358    2.69496824078259
H           1.18540794224208   -1.90737815074427    3.64003148816855
H           1.41812227290604   -0.91651506418249    2.47257847661518
O          -1.43146664350475   -0.12638744654838   -2.66186262482147
H          -2.10936977656200    0.18683666592155   -2.02796881494421
H          -0.79267925962744    0.61448509623243   -2.70726976370171
O           0.42291735257163    1.73078658232073   -2.03474498037717
H           1.35023835784140    1.48290795062882   -2.05711542021840
H           0.18686983447852    1.70836510372312   -1.09405877352989
O          -2.68759461806707    0.70677975652259   -0.42196398957670
H          -1.89135610488872    1.14122146554260   -0.08510802213632
H          -2.87718416534754    0.00025925693709    0.20159001329898
N          -0.07247724404319   -1.63212389938946   -1.03038715978411
H           0.77477557093906   -1.04506468161296   -0.82164287850859
H           0.19314878305178   -2.56580864644928   -1.32188314094460
H          -0.62316695607086   -1.64192116981335   -0.12924593559006
H          -0.64812660982462   -1.11256869664928   -1.78499221556135
