    26
        -50.45817090  Gyration_radius:  2.58641475705 Dipole_moment: 6.541
 S          -1.00339179500216   -0.24848214314843   -2.31713928888440
O          -0.54609734423577   -1.49961931461414   -1.72810763202659
O          -1.47440156141217   -0.32029031167243   -3.66093882304285
O          -2.31706527847718    0.15330922661152   -1.44004764958824
O          -0.06023779135303    0.83397282315862   -2.03557962648723
H           1.81003442763234    0.03424466842221   -1.51684129018189
H          -2.94767927120872    0.23896414365813   -2.14715804137280
O           1.91709012350738   -0.82837497648184   -1.09956331134948
H           1.07652406038410   -1.28320847734341   -1.31740224480796
O           2.00654940986885    2.06839346981032    1.62742962998056
H           2.16120721905426    1.10008945270998    1.60692361803050
H           2.02399655896577    2.32468172537538    2.55066376290313
O          -1.93411653952826   -2.13312928045220    0.41570265413559
H          -1.39190680827602   -2.01378722275444   -0.39530876772097
H          -2.79450322678176   -1.76824620543271    0.20010248742006
O          -0.65852553838166   -0.41667611084795    1.97094961528215
H          -1.15096390478779   -1.12823758836344    1.49410206947940
H           0.27529136052183   -0.68435016441924    1.96427441267163
O           2.06474861379867   -0.63328731554530    1.49381192425681
H           2.01765755554128   -0.73107685338802    0.49952775163836
H           2.74950330521690   -1.23831733867374    1.78120064438457
N          -0.37576416925510    1.65429987361957    0.40741104803059
H          -0.61272718994135    0.80742917402676    1.02861048797908
H          -1.11176874380067    2.35011728947443    0.44856870624631
H           0.52641881827279    2.03132419758748    0.76931465026874
H          -0.24987231032375    1.33025723870369   -0.60050677731370
