    26
        -50.46584911  Gyration_radius:  2.53761084569 Dipole_moment: 5.627
 S           0.45760593814498    0.45270464550559    2.06984363873034
O           0.41922366287141    1.19439408806144    0.79556165132477
O          -0.31644799458835    1.04028065049241    3.10889063718116
O           0.13354769822306   -0.95516168413701    1.79802389199629
O           1.97660884550488    0.47211478334856    2.50866838152426
H           2.50921850603166    0.25855004722362    1.73566399501645
H          -1.56857139574465   -0.57142015983393    1.66186762548846
O          -2.36525551368835   -0.02097029457994    1.57705180417813
H          -2.20485489776394    0.69131255573705    2.20577138440779
O           2.49330498992596    0.10594802213740   -0.36941523409875
H           2.15141824660074   -0.79419818300589   -0.47809862737656
H           1.76004349852444    0.62210988834603    0.03174851995525
O           0.75438010584034   -2.10031357390664   -0.41148510250849
H           0.52167781344152   -1.72825839448894    0.48421339600344
H           0.75216347935785   -3.05292952550819   -0.31345209082805
O           1.54769682866093    1.06377106094756   -2.75293705728709
H           2.09141836553904    0.73427072281724   -2.00626283520535
H           1.76689791894316    1.99075374759099   -2.85541488831629
O          -3.20166464628116    0.24137359537709   -0.95748007392571
H          -2.98804349900159    0.23357193363584    0.00241553432243
H          -3.95585768242554   -0.33910394056270   -1.06643542294667
N          -0.56608341705681    0.08781957377686   -1.38219020056295
H          -1.59775434746053    0.14844638277348   -1.49502122009580
H          -0.00769747241793    0.51707255757789   -2.14491138351988
H          -0.30804678142950    0.59676680218696   -0.49214509000659
H          -0.25492823971054   -0.88890529164072   -1.25447122346394
