    26
        -50.45487232  Gyration_radius:  2.70353667461 Dipole_moment: 7.058
 S           0.21655441588259    0.66540481707382    2.68340553864795
O          -0.70844043143519    1.15257265321534    1.65755660133419
O           0.21690685608545    1.42589586709294    3.88971609951036
O          -0.31392049439265   -0.80632258082306    3.06693904760679
O           1.53241660496611    0.40430845511695    2.09926305216877
H           1.23776110990409   -0.85403227879381    1.22013602802215
H          -0.94096207892297   -0.62433339062040    3.75900647090128
O           1.06173036569296   -1.60679949309178    0.58535262814264
H           1.27582641534974   -2.40428178262228    1.07083053617935
O          -2.52970060714523   -0.50428766243771   -2.09973865668280
H          -2.23512583058947   -0.61470611896254   -1.15863820003379
H          -3.07298129575595   -1.26842892551647   -2.29547640496830
O          -1.63353369816532   -0.93813047839316    0.33342224817607
H          -1.45817212644172   -0.11513393110899    0.83424730194206
H          -0.79327016355242   -1.41802059999271    0.37825402688289
O           1.14567721560210    2.14177731047958    0.13031739498906
H           1.74265350069658    1.84100241952367    0.83381387638568
H           0.26915168199855    1.97348019506483    0.54734227752968
O          -0.37281875752297    0.12872483390299   -3.42825698491995
H          -1.21171685251437   -0.16219253922445   -2.98053208369613
H          -0.55802015121846    1.00633913351571   -3.76733168942424
N           1.43515277420009    0.10601751123690   -1.48626383494155
H           1.30027458895872   -0.69851637270292   -0.84615044313409
H           0.71832628522430    0.08951723665057   -2.26706366741062
H           1.30273124759465    0.99585422773321   -0.88819087670363
H           2.37349942551836    0.08429148368833   -1.87196029652034
