    26
        -50.45751141  Gyration_radius:  2.42093197167 Dipole_moment: 7.719
 S          -0.41625111321449   -1.95381780665442    0.66927504957763
O          -1.33062091910764   -1.48763340531830   -0.37125863821605
O          -0.74069068290002   -3.20140384636907    1.26505605677042
O           0.99888449554803   -2.08766085156388   -0.05519999080114
O          -0.19857579544582   -0.87406493268005    1.66345062843185
H           0.57518136343468    0.41459861987026    1.48145673231415
H           0.91694493374563   -1.57976197673717   -0.87699293509409
O           1.01993378475149    1.31907590684570    1.37196442107206
H           1.24394247543940    1.59802460406877    2.26138634614579
O           2.98814592026705    0.02872255437870   -0.03656319410173
H           2.80328798713484   -0.85224193191211    0.30950964384630
H           2.40988186137067    0.63154789878904    0.46587820280228
O          -2.58295661380931    0.11309329298831    1.40706492753894
H          -1.73993608682931   -0.28289064772821    1.73195588636979
H          -2.84030128192431   -0.50437256117037    0.71035491284540
O          -1.04972948112406    0.49114001535650   -2.03953799357039
H          -0.13108260807181    0.34595797032800   -2.31267710042106
H          -1.26945834320539   -0.32110922603522   -1.51864445624484
O           1.52582245338731   -0.42421163144739   -2.18554543217419
H           2.03095027954261   -0.89594844867794   -2.84908776945801
H           2.17089785158968   -0.12802656080945   -1.49544628540235
N          -1.27976694319535    1.97039153080078    0.08151908855123
H          -1.17590501478388    1.48499561010339   -0.87653435634256
H          -1.65148270240598    2.90920343925225   -0.00301196403844
H          -1.92481923228980    1.33008839150876    0.65001405680198
H          -0.35229661793296    1.95630399288349    0.55161417275917
