    26
        -50.45719263  Gyration_radius:  2.50679122082 Dipole_moment: 4.878
 S          -0.00989078168917   -2.17398013676115    1.29052753235518
O           0.53795692676593   -1.90890997344031    2.58699211733761
O          -0.35258621093571   -3.52089953895364    0.96369613889149
O          -1.45018047347329   -1.37160708563655    1.25239067954121
O           0.72636889938013   -1.47652438703149    0.21580099541952
H           0.69020090711428   -0.16075130527306    1.25046809207507
H          -1.99824685728888   -2.01283279818294    1.69324707392739
O           0.71148774751921    0.67022815605129    1.76590204838469
H           0.61475914358186    0.36193928585540    2.67146516742220
O           2.72258897371632    0.36899511655681   -0.32914792057026
H           2.23886413776364   -0.46469111795439   -0.22388928256756
H           2.63785264084480    0.80950351599495    0.52245001123444
O          -0.60373775686057    2.34313603193172    0.17107640829194
H          -0.69389291079369    3.19506493381328    0.59959287780064
H          -0.13620566368083    1.75497577095353    0.80943439558849
O           1.00148144439416    1.58715969741439   -1.98638983587514
H           1.77670622295112    1.24038421478556   -1.48884685290653
H           0.46556389297053    2.06303785321054   -1.33013558795211
O          -2.44988449741249    0.44361088347586   -0.58766247920820
H          -2.29840140255403   -0.15710452020258    0.15876085961433
H          -1.97354057573751    1.26133559618317   -0.35746875844608
N          -0.43945911109852   -0.59218074764302   -1.96221969809231
H          -1.37070958847454   -0.24335616312767   -1.60550886048391
H           0.16519572746239    0.27416336431273   -2.15236331451453
H           0.01755705363136   -1.09782852456296   -1.15523788411810
H          -0.52984788809613   -1.19286812177516   -2.77293393314960
