    26
        -50.46266735  Gyration_radius:  2.71529914521 Dipole_moment: 2.724
 S          -2.30512698918230   -0.01509382640007    0.74953702170586
O          -2.78548714323597   -0.93021901687414   -0.26281474356812
O          -1.41083078982071   -0.65478756457768    1.70438144889304
O          -1.72193753692325    1.19218972169048    0.17715927013626
O          -3.56900969617121    0.47403031934998    1.57362506744301
H          -3.90936235694322   -0.34670298023847    1.91495421739277
H          -1.47285072789811    1.04469452722471   -1.48442946433912
O          -1.14843091157890    0.95941209214201   -2.40849395494937
H          -1.91367268881556    1.10709564192862   -2.96580644029955
O           3.13375761838238    1.27401466403469    1.12703240581646
H           2.31094100768185    1.56331746530838    0.70097810694762
H           3.84064434541989    1.78469224942280    0.72963527500451
O          -0.81740175088617   -1.72130354092067   -1.87295993387352
H          -0.79534586923054   -0.87899939228917   -2.35939400101595
H          -1.63420512071261   -1.64952625762618   -1.33622219208108
O           3.10669054162462   -1.44878028077901    1.30693253309676
H           3.14846182132403   -1.70308534401293    2.22993723213971
H           3.24418335939845   -0.48086257622525    1.28247122211467
O           0.81005443082443    1.72379058206790   -0.35822464746630
H          -0.09490849009565    1.71616769294358    0.02289844129021
H           0.66573884243991    1.82954633505647   -1.30487351038513
N           0.68367187671101   -0.98816958207359    0.16693777676849
H           1.54882443258742   -1.42964311051843    0.53188956526441
H          -0.07357680576616   -0.94881845640811    0.89987548726819
H           0.89623092251617   -0.00605167218842   -0.08909698742168
H           0.26294765826324   -1.46690771024788   -0.67592919580442
