    26
        -50.45879719  Gyration_radius:  2.57913637208 Dipole_moment: 1.857
 S           0.17630160665809   -0.49317996856299    2.01689007113154
O          -0.02982579396536    0.94916635593480    1.95011137479451
O           0.51877829996798   -1.01590554035782    3.29857497222007
O          -1.28813047463735   -1.12919178390103    1.68966206173982
O           0.99546740620540   -0.93433565001466    0.89583997566791
H           0.63551702556136   -2.10668305228577   -0.20892035462876
H          -1.54975979192587   -1.33396091967181    2.58035615879909
O           0.41164678330820   -2.70242419157223   -0.96046448325321
H           0.41851653775181   -3.59378746484588   -0.60995289105217
O           1.55706510267056    1.62117321865656   -2.20315519888804
H           2.18328461583842    2.31032468329387   -1.97718168514267
H           2.00109405625443    0.76408784937008   -1.98145171348813
O          -1.87007589543721    2.83750169168702    1.17435243014412
H          -1.98435127042284    3.60086863366216    1.74109777040009
H          -1.27363157937730    2.23194486354751    1.64655246541910
O           2.54743463142669   -0.65878251565188   -1.31337543400716
H           2.13996394586987   -1.41864165296196   -1.74217699628732
H           2.18304081484403   -0.66306929787004   -0.41138520276930
O          -1.80400129940231   -1.14381627371215   -1.08009743622695
H          -1.08251885027146   -1.77045908254145   -1.28266213288001
H          -1.98695104514881   -1.27034071580043   -0.14048947915922
N          -0.57800462644679    1.18967501565125   -0.63380384559762
H          -1.23991127596616    1.96359977706055   -0.52876911649978
H           0.19931411597702    1.43230758336516   -1.29570758313554
H          -0.19704499045532    1.01374393442814    0.32766278564372
H          -1.08321805888839    0.32018450298552   -0.95150652290579
