    26
        -50.46633764  Gyration_radius:  2.38482561101 Dipole_moment: 9.397
 S           0.99727031436498   -1.58377670436849   -0.03896535827403
O          -0.45430155959690   -1.51205542985259    0.14706750732370
O           1.64131224941670   -2.59105807181252    0.73687971724558
O           1.20600462948116   -1.89325694449208   -1.56916853668740
O           1.58805201497770   -0.24163197795405    0.16013478221822
H           1.25853201524579    1.01262485445655   -0.61694974630989
H           0.60239912255775   -1.27029830966874   -2.00862347576241
O           0.99881086344850    1.84834301853098   -1.12986699526913
H           1.81886447911093    2.32550935422305   -1.26500758422120
O           0.42531352535917    0.57878131178183    2.37379839648791
H           0.09976461348523   -0.27425888628746    2.74292208079230
H           1.03839417954729    0.29627609239919    1.66129069734368
O          -0.21917750234810    0.10893692746116   -2.78821919337463
H           0.21776247990987    0.83878191385202   -2.30033827675871
H           0.10701942150993    0.13249257687958   -3.68962444167979
O          -0.20555335212230   -1.97856567439560    2.74213604186344
H           0.62378142970694   -2.45910812296110    2.63831694630716
H          -0.55392383579818   -1.94773493624462    1.83304242180753
O          -2.26962372680672    0.05459864598497   -0.82669759805020
H          -1.72077412474912   -0.66761408238060   -0.43601574515670
H          -1.92520013876915    0.13727250219344   -1.72427030442131
N          -1.07499428032083    1.84331996935023    0.67925326210176
H          -0.55911193500242    1.30501177087883    1.47227398363133
H          -1.62486779555739    2.60963863079163    1.05035422106593
H          -0.33984577889505    2.17338334980655    0.03401636627436
H          -1.67590729816259    1.15438819182580    0.12226083150238
