    26
        -50.44915940  Gyration_radius:  2.6200529199 Dipole_moment: 5.015
 S           1.73773772914061    1.41202160755735    1.28603039359781
O           1.54359986642027    0.90067147894230    2.61614902062786
O           2.70426076285181    2.44806528301637    1.11308761880220
O           2.32694749238218    0.14997204164319    0.41288831584808
O           0.44974155867104    1.64857869658096    0.60543191826425
H          -0.40733778120375    0.72384528841373    1.60035991514949
H           3.24615795913541    0.24508379588313    0.63731808055932
O          -0.95738030184015    0.08619863022698    2.12381333360538
H          -0.44949571276296    0.02052094433539    2.93996124472325
O           1.40360937384830   -1.83990034522264   -1.27254364149492
H           0.73677862118924   -2.23739826307518   -0.69947814476207
H           1.82673435977659   -1.15810988179608   -0.72650920783899
O          -2.98051965091717    1.12182828128524    0.44492463720869
H          -2.46859889744317    0.73405371430480    1.17247328380185
H          -3.02517386795021    2.06144462488986    0.63002231596928
O           0.35534262359082   -0.48263798191184   -3.33796165217540
H           1.05076848364308   -0.02123221822025   -3.80804817618889
H           0.80323295850936   -1.10329033461415   -2.71865191037750
O          -0.84768366419601   -1.99433714116554    0.48781550991110
H          -0.83572287592693   -1.32018329544469    1.21352155208054
H          -1.58994642165945   -2.57330606497430    0.66615393334138
N          -0.93538374803569    0.24074344991104   -1.10763343218196
H          -1.87378999322881    0.63970500958116   -0.95127847685288
H          -0.62915815423190    0.16751973058613   -2.09820063739664
H          -0.26314330660719    0.83670315630384   -0.54827410284201
H          -0.92157739315025   -0.70656021703051   -0.68137168136823
