    26
        -50.46802095  Gyration_radius:  2.42664480784 Dipole_moment: 3.827
 S          -0.30783961058380   -1.63688857465502   -0.77699015266232
O          -0.51421636588112   -0.52050163871618   -1.69337872612484
O           1.07684967182285   -1.94574159705535   -0.54572921576329
O          -1.05016977524586   -1.42556405616942    0.46435160904333
O          -0.96813169071328   -2.87987256592637   -1.49376174341974
H          -1.64399751217741   -2.46277172454805   -2.01809864987504
H          -0.31794548233232   -0.67922410443775    1.73901159788474
O           0.11743741185619   -0.16413829325637    2.45882155199106
H           0.03617979548650   -0.69339452066668    3.25341669141249
O           2.28167679857072    0.03631777888598    0.76802942895654
H           2.02967590773959   -0.78130054191560    0.29400636968680
H           1.75366552781188    0.02290294029817    1.58289059919041
O           2.05331337163357   -0.04474741852278   -2.57451687236171
H           1.13153107160271   -0.31516176980091   -2.46388508303637
H           2.56877262118760   -0.72245154665744   -2.13192832826195
O          -0.90319979999312    2.21666136804641    1.41095828118474
H          -1.71444869497206    1.79798703429677    1.05592316259205
H          -0.52637438906390    1.55566638481379    2.01336483970277
O          -2.78750864590770    0.57723421654914    0.39626354763266
H          -3.54632006437567    0.27374146290886    0.89701420072449
H          -2.17055532534523   -0.18321428683665    0.34063069960160
N           0.68182271217444    1.62329276130765   -0.60754485635138
H           1.04838365132096    2.29743066277017   -1.27159547224159
H           0.06603626642598    2.05400804593031    0.14414542838259
H           0.12910425412839    0.89606904134048   -1.11514859501712
H           1.47625828486684    1.10366094207992   -0.12625031269111
