    26
        -50.47190964  Gyration_radius:  2.4694414479 Dipole_moment: 1.439
 S           0.29691307939022   -1.26046897445919    1.51241101449680
O           0.61257369802362   -1.73276904879957    0.17752843799511
O          -0.84627255551414   -1.89591463041789    2.11964577493133
O           1.54498028473505   -1.68286154833514    2.41442665920888
O           0.23909892664490    0.19608009356380    1.56124261198098
H           1.84230008986312    0.30895757123057    1.00975430700461
H           1.13590090655014   -1.97338938090324    3.22306685340589
O           2.68165789345270    0.26991596487031    0.51553193604557
H           2.86496423100363   -0.66719441610163    0.42356566914916
O          -0.49265596385533    2.26948628672828    0.10294894766611
H          -0.70466150399699    2.97339097549304    0.71739494166745
H          -0.25470206581330    1.49279311403692    0.65814055382401
O          -2.76464085165960   -0.98716399989152    0.54850774406146
H          -3.37851369553113   -1.72090014498672    0.48550899806885
H          -2.06461651568209   -1.27715074664158    1.16937076101654
O           1.68997395687034    1.69871260877506   -1.53652116055763
H           1.00698396093050    2.18376532179682   -1.04533215591129
H           2.24793244920717    1.28138720360284   -0.84625711672974
O          -2.15689601539689    0.72230239918964   -1.44541063192883
H          -1.74968587468599    1.45839373869465   -0.95618506007944
H          -2.49668290214157    0.11939048255827   -0.75482248837054
N           0.15239399782847   -0.37185693421437   -2.03907019948702
H          -0.83591230101243    0.01898062750058   -1.93372865387751
H           0.26232995924454   -0.90270182198332   -2.89494320045976
H           0.82805648438993    0.45307297217747   -1.98980655773414
H           0.33918031717518   -0.97425770347992   -1.19696800539184
