    26
        -50.46606899  Gyration_radius:  2.48921458522 Dipole_moment: 2.565
 S           1.52334974418540   -1.64275121630973    0.17105990029035
O           0.28017239048408   -2.04570768245856   -0.46019896828417
O           2.34780364721718   -0.80296852541295   -0.67179584356359
O           1.30212792687652   -1.03177577383903    1.48049641957303
O           2.31254644872284   -2.99298675132140    0.42984165189590
H           1.69036630932218   -3.64247865632794    0.11946140999889
H          -0.20370644894860   -0.55051520858327    1.84268258329986
O          -1.05429287437002   -0.07080133963289    2.00379248327371
H          -1.02019301647260    0.22445267954700    2.91512242718124
O           2.20576226542916    1.43113328382683    0.98144033888773
H           2.76847641886519    1.21033361283163    0.23147798088052
H           1.96898832569230    0.55353473893084    1.34566556325897
O          -2.68069951509400    1.82203864876180   -1.11024800335839
H          -2.54621108786992    0.86455506871047   -0.97671103290541
H          -3.39970089249069    1.90216129087659   -1.73658796880555
O           0.41787425877758    0.21968378589382   -2.11834223082683
H          -0.17972671169328   -0.52324926064720   -2.24222369384101
H           1.22823409419873   -0.16366166581338   -1.71478048986619
O          -2.12479487882908   -0.80632857445456   -0.46410424098493
H          -1.30124973514753   -1.32364725038366   -0.53975763588482
H          -2.26602264072639   -0.73397195642957    0.48589071724875
N          -0.25878180846727    1.64788102181818    0.01311174471742
H          -0.74460958079403    1.03957470461749    0.70467926509654
H          -0.85120908064960    2.44806814549382   -0.20238353789214
H           0.69270839629620    1.86652777557147    0.39883896454138
H          -0.10721197446863    1.10089910467216   -0.88642779394370
