    26
        -50.47311254  Gyration_radius:  2.49095158786 Dipole_moment: 5.026
 S          -0.79883499116818   -0.63854344175162    0.58295965867509
O          -0.71765982371091   -1.13836789040277   -0.79978510968681
O           0.42751974731884   -0.95638001871698    1.29861141089603
O          -1.06761784570512    0.79503665357952    0.58279445999150
O          -1.95567480113682   -1.36327433480196    1.29467240848530
H          -2.77217083571050   -0.82364192017796    1.07118973927543
H           0.20520512796210    1.67044133253026   -0.10733144663081
O           1.09693149769199    1.94385984432540   -0.41807436009841
H           1.64373165663356    1.88120690361432    0.38772557473690
O           2.09353750632738    1.00322230447704    1.92401734922172
H           1.42332422061096    0.29644729870351    1.78112967844383
H           1.85149075498760    1.43412100561649    2.74473576863727
O          -3.70921738100971    0.33846471439318    0.52947888553174
H          -2.97505283327984    0.96088095771767    0.64663214591743
H          -3.71844110360541    0.14287903024214   -0.43042240256238
O           2.95243274484280   -1.43369079936153    0.50567153950120
H           2.06870043011668   -1.57489399747118    0.89545078709946
H           3.33233432415886   -0.71784236363187    1.02705145573065
O          -2.87990960289474   -0.14418854823313   -1.98152160192926
H          -2.09712642502596   -0.60844663487656   -1.61873564313665
H          -2.54944381989477    0.65104352485374   -2.40353682203348
N           1.65095600670102   -0.34828635571640   -1.53899390891356
H           1.94129975668974   -0.43680862497284   -2.50636852311249
H           0.69944751916727   -0.78555501581170   -1.36741287302885
H           2.32195846807373   -0.81812905610342   -0.87250102677057
H           1.53227971187214    0.67044543210039   -1.22743713420877
