    26
        -50.46292693  Gyration_radius:  2.64813531359 Dipole_moment: 3.418
 S          -0.81764256628578    0.02701150879412    2.14299315309198
O          -0.66647989594693   -1.30913689382388    1.56983662204603
O          -2.16594674591251    0.35342100618419    2.50367380691769
O           0.04247766776728    0.00473768417663    3.50015345938264
O          -0.14944084107154    1.03203819427227    1.32831984265791
H           1.45846100177934    0.69931675781672    1.44964539606893
H          -0.57262772170728   -0.33036001631486    4.14523680415251
O           2.40760302860120    0.44397838967893    1.40067670269811
H           2.64890150763119    0.20260112090093    2.29608146130921
O           1.07718506358736    2.40402426292440   -0.63137955983439
H           1.96862204113566    2.17923431047373   -0.34776796211410
H           0.51800156218781    2.19915740766664    0.13761700780095
O           1.32751496270014   -1.50669006812443   -0.16669296815361
H           0.60683533660034   -1.61671712869470    0.49156911968324
H           1.96728313148834   -0.92470741986548    0.28458990135239
O          -0.66587887033959   -0.95592505546784   -4.13788429044025
H          -0.21468016259725   -1.79315353331873   -4.26769042637723
H          -1.60895119650563   -1.13636165818605   -4.12667866989284
O          -2.31919365184479   -0.28098009389595   -0.21822057973466
H          -1.83010586298987   -0.88229103693841    0.37510349848466
H          -2.74218084666654    0.33065044916662    0.39333453499125
N          -0.05442850797273    0.18188288916738   -1.65268999445493
H          -0.16475343179659   -0.04516212774028   -2.64828851386993
H          -0.98232995456592    0.15045166174776   -1.17592433089762
H           0.55303916196147   -0.54411661101127   -1.16105787316684
H           0.37871578074019    1.11709601074926   -1.48455615162137
