    26
        -50.46471585  Gyration_radius:  2.51605392988 Dipole_moment: 2.410
 S           2.21331113671110    0.32929095372102   -0.06737076828848
O           1.50034306760963    1.34524148559579    0.70622744909617
O           1.65524714958864   -0.98673809560451    0.12566127987765
O           2.34385732989092    0.71269313729365   -1.46136221329289
O           3.68960827502013    0.28877497309384    0.51495603341608
H           4.05639117158098    1.10069628545933    0.17949232692986
H           0.89132613429578    0.26716186747607   -1.90360329140502
O          -0.02994142619727   -0.04114443433162   -2.10766952189625
H           0.07879921386171   -0.78081677417195   -2.70904491083241
O          -3.15255681943707    0.98298951369137    0.22499680338739
H          -2.33271701628599    1.49018063921144    0.03724241299387
H          -3.88040288181719    1.54880042847279   -0.03176853417003
O          -0.28326463883413    0.28000237627763    2.27140596633652
H           0.50303955648833    0.63937348543552    1.79563931270248
H          -0.84245812105482    1.03777885484139    2.46076845987033
O          -0.80322803748084    2.14116709444304   -0.45740438252761
H           0.04268954239989    1.97906772748564    0.00456216282305
H          -0.66958091433825    1.78972583926913   -1.34340311465739
O           0.15689436479235   -3.20841917411143    0.11827096565715
H           0.81719249338238   -2.49088672607849    0.04716451442647
H           0.41811668341842   -3.71903684217288    0.88608878008928
N          -1.29999009238287   -0.95755837416230    0.13708450651886
H          -0.88453386588029   -0.52469234175519    1.01002289692805
H          -0.79648831368716   -0.56493170898568   -0.69147905227244
H          -1.10431087585497   -1.97396865904412    0.15847338823478
H          -2.28734313585519   -0.68475152135855    0.09504854004890
