    26
        -50.46494393  Gyration_radius:  2.41174958394 Dipole_moment: 6.164
 S           1.92107207502718   -0.52351429060087    0.64905632694735
O           1.78526574085690    0.50509351496441   -0.38126125556815
O           2.48457232921620   -1.74959240188967    0.18285489550476
O           2.87725505833997    0.06802466028969    1.75445504408184
O           0.61198658396806   -0.71405436778651    1.31439930800516
H          -0.93744583164006   -0.27862013238360    1.08899555818155
H           2.54600372998498    0.95010009027149    1.95199338853956
O          -1.89214017926848   -0.05881730697317    0.94014483593805
H          -2.36135785189481   -0.39033782644835    1.70709077763490
O          -1.28120482007389    2.42305818356035   -0.26966656456989
H          -1.72510248939763    1.69389192121007    0.18502364502519
H          -0.54554110321614    2.67254870151078    0.31212059911178
O           0.87648278193618    2.05927079111193    1.48930010183726
H           1.23286116835838    1.63611793403450    0.67723469991539
H           0.42302149349435    1.34854693838187    1.95452722153732
O          -0.08036606604813    0.98661333045234   -2.19096381564784
H           0.74321973744565    0.81552545427938   -1.68736086421033
H          -0.54276066599856    1.67781491463241   -1.66170735497611
O           0.06541505100012   -2.77510042844458   -0.27973247439430
H           0.17739433650769   -2.16746678079912    0.47795880582012
H           0.98310607236729   -2.93426242740460   -0.53681988261406
N          -1.49487570490898   -1.06615101058188   -1.55824186456956
H          -2.15536811419214   -1.40084251352865   -2.25038125774274
H          -0.89079161636693   -0.22900672682378   -1.93604140324915
H          -1.96995277151897   -0.71196029638553   -0.70976876598585
H          -0.85074893400729   -1.83687992465420   -1.22320970456715
