    26
        -50.45115627  Gyration_radius:  2.60478597304 Dipole_moment: 5.724
 S           0.14970069351187    1.20569201907530   -2.10721225391010
O           1.23363228063022    2.14864338334753   -2.20582716026869
O          -1.09907110979456    1.59912032972089   -2.68690160160638
O           0.63425287135496   -0.11730997969402   -2.89992695545578
O          -0.01640798951240    0.69059833502746   -0.73866498590019
H           0.42274883137376   -0.85508584417081   -0.66343156771067
H           0.70105973333395    0.22941838239985   -3.78220293217465
O           0.59640255328384   -1.82187124194804   -0.54028251981675
H           0.96357732106344   -2.10564770221965   -1.37967363176420
O           1.52754851042792   -0.19103274300475    1.71209636497326
H           1.33242673139736   -0.92353967945989    1.11619304715242
H           1.92490727724071    0.49163048924178    1.13138987044501
O          -0.68780999313360    0.56322488232926    2.89137823786024
H           0.18454295755012    0.36466618435543    2.44710572445633
H          -0.67190699474599    0.08339977041591    3.72022918227674
O          -1.85384613796304   -2.47549800654315    0.27894293850193
H          -1.75408237262636   -3.11121123423266    0.98907056969378
H          -0.95036497522935   -2.33947095631844   -0.09523757928685
O           2.64484947956259    1.56824738739260   -0.03768632266831
H           2.89487580596458    2.43505920307326    0.28637772674276
H           2.11754211774822    1.73237534477641   -0.84847097930908
N          -2.09804202843519    0.17017595810666    0.68849851743534
H          -2.20480375705668   -0.86183348346487    0.55586247483729
H          -1.33345711538781    0.48255458651206    0.01102552742949
H          -2.95875061389606    0.67484931556803    0.51216773570275
H          -1.69952407656052    0.36284531950565    1.64518057257960
