    26
        -50.47679055  Gyration_radius:  2.36803366763 Dipole_moment: 3.214
 S          -0.37716316073315   -1.45894113725815    0.35925004320813
O           0.58564654320696   -1.34907850889351   -0.73733425232099
O          -1.71223347565298   -1.73857718864607   -0.12679992526153
O           0.06237485292684   -2.62766431279882    1.27018992770936
O          -0.35081172662620   -0.22843243300512    1.16658898442963
O          -0.07678082105561    0.69876608406143   -2.31746543181608
H           0.33440382018102    1.32761576730266   -1.68619168072076
H           0.21299863483064   -0.17226986019873   -1.97911292817988
O          -1.96433995232762    1.90182507558801    0.89462578104620
H          -1.27177989806090    2.54911354305845    0.72877224894831
H          -1.49450075503635    1.10976687715794    1.22366854712329
O           0.93864483642752    1.76865803988968   -0.07014644012919
H           0.49314446490218    1.04889516400787    0.42219985105979
H           1.86627440336836    1.50653510981161   -0.08504459788940
O           2.88207704018957   -0.33527930930760   -0.02771611254507
H           2.04315516437766   -0.73775286863969   -0.36476923044102
H           3.59439843977575   -0.76821560787799   -0.50015869485002
O           1.88879144210532   -1.15093567517887    2.36957476571329
H           0.83297024322848   -2.25115938254273    1.77093382453284
H           2.47049899041245   -0.86216918944773    1.63958751968491
H           1.17287344122486   -0.50143147663958    2.39145491256563
N          -2.46171897521682    0.46594681106759   -1.28831077993462
H          -1.58017453723795    0.64242748387604   -1.87248470562634
H          -3.31323876933167    0.49736860883184   -1.83755103973363
H          -2.30847059902767   -0.49054006933426   -0.85030391726290
H          -2.46703965684373    1.15552844511860   -0.49345664930116
