    26
        -50.46260583  Gyration_radius:  2.43266203232 Dipole_moment: 7.595
 S          -1.10497256665563   -1.32316593773626   -1.50776640880483
O          -0.36122704249230   -0.23666912567089   -2.14913538748532
O          -0.96369019748913   -2.57862885327206   -2.15426555445358
O          -0.72908701029704   -1.35654806257354   -0.07075091052657
O          -2.62456139581293   -0.89863487020327   -1.51686378689870
H          -2.70699880968455   -0.16856590778229   -0.89117088759120
H           0.86638731083559   -1.45855077892479   -0.41855644893516
O           1.79704725363601   -1.27701397421814   -0.68232702859117
H           1.75768491346786   -1.25315022720460   -1.64239228767305
O           0.08012324324918   -1.76442167598079    2.46614854810611
H          -0.34886771962424   -1.76981831641984    1.59293716165145
H           0.82334450333525   -2.36605746226537    2.39908846429873
O           0.14664251133068    0.91899947327948    2.44426153503216
H          -0.71121300920351    1.08190644986611    2.00845547671396
H           0.13999109868833   -0.03838326953978    2.65919837694651
O          -0.02155355268029    2.15233249894045   -1.37483531897404
H          -0.16840655827138    1.22470548609830   -1.73735598444613
H          -0.03938617318815    2.73725469625632   -2.13293174129145
O          -1.77531367249832    0.96836480373726    0.47166607475848
H          -1.34825201154697    0.09382243445984    0.33886949963018
H          -1.32077455603138    1.59009297911442   -0.11390751383812
N           1.74798953298517    1.15635597478486    0.40243712743613
H           2.63932877775558    1.59528289704212    0.60462009483131
H           1.19898006486815    1.71134639126211   -0.28689804276106
H           1.88146696349549    0.18883774890153   -0.00908665232741
H           1.14531812173338    1.07030661814488    1.30056159512523
