    26
        -50.44774789  Gyration_radius:  2.69037196987 Dipole_moment: 3.369
 S          -0.73602467594176   -1.49267233056290   -0.24826687588636
O          -1.00314890117172   -0.23113290982007   -0.90452183262555
O           0.00422035725678   -2.42751977538750   -1.03356973351683
O           0.01257237128752   -1.18721324015034    1.07443351564331
O          -2.02802758104672   -2.15014289529215    0.21056047995354
H          -2.53513201647421   -1.53994525935037    0.87317835831771
H           0.49724522100878   -0.31618337551693    0.93967339550935
O           1.05131202766468    1.00847746479228    0.27995046960943
H           0.44426703441177    0.87158500882622   -0.46435311812100
O          -3.30235289678155   -0.59698690416468    1.72837493527509
H          -3.10872850514874    0.29114045528701    1.29425880364393
H          -4.24201728929377   -0.75594301615016    1.61460472054102
O           2.26615521481004   -1.77381747784920   -2.33641803896018
H           2.44354456318505   -2.50052406415909   -2.93589498919823
H           1.43610240337277   -2.00787788047602   -1.88004265099934
O          -2.64719224038749    1.49998703819602    0.38027538026009
H          -2.01037118278531    2.03545804284162    0.89381134323591
H          -2.11195990656983    0.98595213810590   -0.25021994284342
O          -0.57144614668082    2.78694594058683    1.59785811040855
H          -0.33165656994652    3.67251821965639    1.32059586955088
H           0.12379575501330    2.19107904287441    1.26988554842955
N           3.37981218964400    0.32485094128232   -0.71277157119328
H           4.01828516678404   -0.08145144551469   -0.04085976555546
H           1.97907706061453    0.80399258086840   -0.06829898263192
H           3.89083762878148    1.00769703790440   -1.25759426756545
H           3.08083091841200   -0.41827334682376   -1.34464919128244
