    26
        -50.43955752  Gyration_radius:  2.56534566116 Dipole_moment: 5.748
 S           0.72624125861119   -2.23715560779191   -1.41406555644044
O           1.81165319239181   -1.34363267284885   -1.70339786992016
O           0.64565918070038   -3.46355278650171   -2.11028967610969
O           0.71981454523748   -2.54332661199663    0.11788999564955
O          -0.61256815127558   -1.44614583429579   -1.57709161804054
H          -0.45347492129273   -0.45469509354612   -1.72788529344657
H           0.78299523750228   -1.70237747174360    0.63843943549364
O           0.82837673636182   -0.35791443123839    1.58689538807451
H           1.48888087120274   -0.57025278391569    2.24881420908007
O          -2.11313808627492    1.63187381198762    0.01724073042574
H          -2.31989683538400    0.71718996147418    0.29691992498140
H          -1.61794688044141    2.00491282831567    0.76939847131703
O          -0.66065188104492    1.89613087530895    2.31931393506446
H          -0.14772553626265    1.09035828723002    2.13525751811858
H          -1.25986815532112    1.68746864207321    3.03803836210054
O          -0.46686183344409    1.08419830472757   -1.89447397685757
H          -1.11478463555617    1.36480227583117   -1.17286124459699
H          -0.89980142440374    1.27479508204911   -2.72842044745835
O          -1.97042715512143   -0.94644731229787    0.84413093760089
H          -1.13705548917534   -0.91736177624574    1.32717689636907
H          -1.77575576096332   -1.39696260739770    0.01243721181415
N           1.96624256544460    1.00368913854296   -0.23675746209371
H           1.30862562595488    1.63453422719081   -0.67971219589841
H           2.12560392069400    0.23763561305638   -0.89672703353216
H           2.83656049860860    1.49566681969192   -0.08483862465129
H           1.30930310331873    0.25656913234477    0.87456797294577
