    26
        -50.45315838  Gyration_radius:  2.4171338182 Dipole_moment: 4.035
 S          -0.91147591172252    0.82759301758614    1.04847534312391
O           0.52570309444992    0.74770885948019    0.87388158314650
O          -1.53675374355005    1.93949139151908    0.41699274704289
O          -1.51978316262961   -0.49928274704293    0.51288409548589
O          -1.24458831039829    0.76169967942402    2.52675988740977
H          -0.56167807074647    0.09556792170547    2.92469333740111
H          -1.34717663559508   -0.58642719126246   -0.49434986520675
O          -1.02807843573254   -0.66410579516238   -1.96516904471004
H          -1.82672686590958   -0.85315806066764   -2.46083649144242
O           0.00612705501953   -2.73404217759686    1.46389003406370
H          -0.87321264066355   -2.44198394928198    1.20367295303191
H           0.59831133862014   -2.47316594057820    0.72636760042178
O           1.29469890712326   -1.43081071502474   -0.52551433689411
H           0.68370407203258   -1.40950167337301   -1.27145931113751
H           1.11667444346352   -0.61601667552072   -0.02224291780448
O           2.22464653257399    1.55539581126909   -1.16155822414204
H           1.73839615412274    1.47111970346158   -0.32796491787015
H           2.64148155819097    0.70208506959139   -1.30750274657777
O           0.55047642497560   -0.85390691672893    3.21764598562483
H           0.37173678536830   -1.67313814607817    2.67813354420312
H           1.30804436450011   -0.42679991779203    2.80587997177673
N          -0.43157210000052    1.80083314793893   -2.22361093012175
H          -0.77445655400891    0.33394852815504   -2.16785815403959
H           0.57655507405158    1.88900552894915   -2.08745715582302
H          -0.70213132382449    2.38410331954348   -3.00452416333083
H          -0.87892205963158    2.15378790744549   -1.37922883352192
