    26
        -50.46809778  Gyration_radius:  2.53145360165 Dipole_moment: 3.057
 S          -0.54552223431060   -1.07578854132360   -1.62221164519029
O          -0.48370630730696    0.15283386489989   -2.38920738423320
O           0.61675976766480   -1.25960262633378   -0.77238423560844
O          -1.80292492131334   -1.18595586253852   -0.89257963504151
O          -0.52754094622029   -2.28074054463159   -2.64720989648755
H          -1.38583273115570   -2.23694412840130   -3.05727456334091
H          -1.97752281278264    0.41940836572547   -0.42820572204255
O          -1.87856673525981    1.35041515265150   -0.13423192200831
H          -1.90617155347264    1.86848680101319   -0.94225747569581
O           1.88770176189268    0.62715032261565    2.71060101456798
H           1.51684433671300    0.76721193616564    3.58262813329691
H           1.73609902953016   -0.33129068827705    2.49880501536738
O          -1.55330586242304   -1.13389131977973    1.79400024056297
H          -2.04167173689653   -0.32406138624822    1.95553850213526
H          -1.67603955689390   -1.32708993661263    0.84641585914021
O           1.25827062370561    2.14886424452315   -2.09398970282660
H           1.96965552862549    2.03653689202970   -2.72553787262108
H           0.59512065678057    1.45692568452440   -2.30730972263591
O           1.09969782336574   -1.76936877386797    1.93741898419495
H           1.17535947296635   -1.84244574301042    0.97604549290155
H           0.14270442653418   -1.67487651675236    2.09120994756120
N           0.76780967807271    1.14527927591547    0.34579024995725
H           1.20880782786084    1.76464671157927   -0.35553729049306
H           0.82963743145175    0.17139089442121   -0.03905103927980
H           1.22523491093390    1.16292630444693    1.28770536983275
H          -0.25089789801680    1.36997959698505    0.38082927815452
