    26
        -50.45601757  Gyration_radius:  2.4627331678 Dipole_moment: 7.085
 S           0.83494198938788    0.76709065016802    1.65327822358727
O          -0.52101956416649    0.68128626791623    2.18508423959166
O           1.86888087658511    0.92465731357746    2.61610483972687
O           1.06047079835780   -0.65653719331182    0.91258177790046
O           0.90497916090452    1.70038730896437    0.52530787199487
H          -0.38144070946254    1.96763340220644   -0.40272972400186
H           0.75966067592070   -1.29386887956914    1.59770440643093
O          -1.03627690722034    1.95750411511905   -1.15206028560049
H          -0.94639177485418    2.80555348057301   -1.58917016567913
O          -2.01493529646055   -0.29997871361159    0.24727912411301
H          -2.20999457255961    0.49001751140753   -0.26741954978609
H          -1.50795617108431    0.03904828157989    1.01882973595168
O          -0.23506467052702   -1.83005120052934    2.84995872548514
H          -1.04634962747421   -2.25551817292370    2.56030116585656
H          -0.44815040710112   -0.87994094764791    2.94732379152620
O          -1.45615501276943   -2.15182224486490   -1.65105392638708
H          -1.71951768276690   -1.58154713762148   -0.89828750482828
H          -2.18880436113668   -2.74586305112070   -1.81240262682872
O           2.64726809481112    1.13786465476838   -1.41658683006528
H           2.09452040909171    1.44791503772810   -0.66617771061776
H           3.52628290663113    1.01634326623330   -1.05648329077878
N           0.40418086933755   -0.26266901209868   -1.67745269903808
H          -0.24050141706075    0.56284597017169   -1.67879637688548
H          -0.04510798243796   -1.07285817726547   -2.12132025540592
H           1.32062783103082    0.03000373835629   -2.05068231842990
H           0.57585253500683   -0.49749626821579   -0.67313063783112
