    26
        -50.46326212  Gyration_radius:  2.41914022708 Dipole_moment: 7.383
 S           1.00360184690161    1.32955739434291   -0.66997414601341
O           0.65751050075925    0.20817977657909   -1.54938873181356
O           1.23975123909141    2.54843050892327   -1.37488897014825
O          -0.32798864266016    1.56491810392112    0.21650477746780
O           1.98807007092362    0.94154724838467    0.32803412219368
H           1.17605710636372    0.48208665255161    1.65596552974897
H          -0.93370148337382    1.85943366380426   -0.47650105404189
O           0.59916171526162    0.18997800059003    2.40684140103464
H           0.19356717302954    0.99950873972698    2.72298086916199
O           0.70072026734452   -2.27002409656306   -0.68249535753155
H           0.72510061273193   -1.43552601265661   -1.20173928727524
H           1.54713817798823   -2.25605879140530   -0.18669950429298
O           2.83047528868125   -1.56939875702507    0.78558357661497
H           2.69041793268918   -0.64025112043306    0.51684006499211
H           2.79494873561373   -1.56617692879376    1.74430309986048
O          -1.37275783915459    1.62925713547202   -2.26038543920987
H          -0.59939182922473    1.01856913689772   -2.20422610126890
H          -1.03632308356753    2.40606298053296   -2.71376492832164
O          -2.88894239770656    0.08502614548135   -0.49535237245050
H          -3.34610686143946    0.81718942281152   -0.07739701902734
H          -2.47275356440456    0.44765137365781   -1.29191913180153
N          -1.05611341152764   -1.36258810039582    0.97776202066853
H          -0.47512525767771   -0.73144958306719    1.59234043644816
H          -0.36001585750294   -1.83519900191834    0.27725329871658
H          -1.54058399996495   -2.06269803898376    1.52917423864762
H          -1.73671642917769   -0.79802584244078    0.43114859764545
