    26
        -50.47378498  Gyration_radius:  2.44590695135 Dipole_moment: 4.213
 S           1.13385711869013   -0.71071661069502    0.60572687889356
O           0.89378541873167   -0.90638298593938   -0.83047040571682
O           1.20031166455611   -1.96516842597329    1.31064508082378
O           2.51941475660815    0.03558131236030    0.71236461384369
O           0.17284468467949    0.22520303991869    1.17068267700891
H           0.51368636614038    1.71446782713320    0.53578366179122
H           3.15210372686214   -0.63344026816566    0.38342516697114
O           0.58180481307080    2.57526420284136    0.06471028925346
H           1.51660869507567    2.78639725918163    0.05383057321975
O           3.32735197389546   -2.27495993357505   -0.28094484282758
H           2.68141014732152   -2.54507038409451    0.39428640021815
H           2.81766886371200   -2.18486980972377   -1.09242815598893
O          -1.96454937636928    1.77647029413266    1.56966904746331
H          -1.22853087137583    1.16169986579988    1.73967994399590
H          -1.53719279965647    2.58518708034592    1.26898626893596
O          -0.45844088277486    1.08022781022094   -1.95341345862278
H          -0.11482847558692    1.82141947716859   -1.41780960365668
H           0.10908942319950    0.31892395917539   -1.70085145814692
O          -1.34379625840039   -2.08748812179395   -0.04721698006207
H          -0.53216712766204   -1.80587621537902   -0.51325193921072
H          -1.02688184932375   -2.35676063056204    0.82020859204857
N          -2.51889293629930    0.27759569567244   -0.56414012865117
H          -2.21100924975792   -0.68746022040808   -0.28843333593087
H          -3.43853914509146    0.26274441835253   -0.99051041367941
H          -2.48253904420111    0.89457596111424    0.29012002111121
H          -1.76256966601156    0.64243539288264   -1.24064850292055
