    26
        -50.45761673  Gyration_radius:  2.48011106565 Dipole_moment: 6.818
 S          -0.70780533071283   -2.13546332566676   -0.28015892312475
O          -1.43851397714618   -1.81478750003998    0.94452409540047
O          -0.77916908896370   -3.48472210113665   -0.71558603884919
O          -1.42591240871756   -1.21634762123028   -1.42932991246282
O           0.64250756321933   -1.56697077087416   -0.23989495852703
H           0.58825895060621   -0.68537618619875    1.06150635004095
H          -2.16012797011616   -0.76788409649776   -0.98486719038135
O           0.50508114023179   -0.07841819651982    1.84832780305972
H          -0.06646209190114   -0.56192611329012    2.44974889414576
O           2.83312326935464    1.24062744530719    1.28025671515112
H           2.59194551256582    2.16412596670752    1.37000163236534
H           2.10810947249687    0.72794716360725    1.67624084187740
O          -0.76423693537893    1.84327222875230    0.48551323420863
H          -0.27958310386119    1.25058189105845    1.10400467718809
H          -1.66618952267593    1.48457496859090    0.46359108132530
O           2.64481454830859    0.01226219342921   -1.12302983527898
H           2.90533395725455    0.45968907843226   -0.29049585131556
H           2.24311794268655   -0.82782733101903   -0.84561934856550
O          -2.93534299353758    0.14556919905620    0.37816049854300
H          -3.83915178672867    0.02003355357977    0.67023663935989
H          -2.40288368313904   -0.60247346057853    0.77558792325391
N           0.27828544918422    0.89818523657543   -1.74491009592059
H          -0.10436175499112    1.42175413048550   -0.89868678657185
H          -0.26632594742534    0.01539787263493   -1.80373962595024
H           0.18879305413102    1.44074705737037   -2.59701561427068
H           1.30669573526221    0.61742872745980   -1.55436620470159
