    26
        -50.46804849  Gyration_radius:  2.45328008112 Dipole_moment: 6.137
 S           0.19043594743275   -1.49633309804398    0.91501702235888
O           0.02250474304028   -1.33223189191940   -0.54048195604977
O           1.56352288464351   -1.59575434422159    1.30855262862185
O          -0.50475717609074   -0.38308899234101    1.58942401159498
O          -0.55481814529050   -2.79747397043860    1.31566562214202
H          -1.39714836351585   -2.75140699001816    0.80398364761458
H           0.24994249104462    1.04058841813614    1.59056800050625
O           0.62194603504716    1.93392942090614    1.37275780617128
H           0.45386614623067    2.49287351595489    2.13243094273257
O           2.76012828122502    0.52219527600303    0.16488894816520
H           2.30470005003627    1.19019109559722    0.69296443945739
H           2.46877086871620   -0.33438737046338    0.53430600311805
O          -2.61882188881533    0.41605826251223    0.28049599597056
H          -3.29562895189588    0.65431159194475    0.91579568645990
H          -1.83257458600551    0.14164592469917    0.81353373594798
O           2.19468416757709    1.08011577450912   -2.35850558450189
H           2.33249584105637    0.27231135548258   -2.85642470269138
H           2.56513114554883    0.89965607847236   -1.45713947907100
O          -2.47087593519673   -2.25129517656257   -0.39961924806213
H          -2.79830396777962   -1.35391894761075   -0.20791501398987
H          -1.66865426195821   -2.10329830514377   -0.92223716715533
N          -0.13966941553286    1.17946538370382   -1.15327957785945
H          -0.13720573032145    0.13511261105889   -0.90607055086068
H          -1.04139151768904    1.44088929463252   -1.53911832653626
H           0.05195378242928    1.69889806628207   -0.27930635901314
H           0.67976754603957    1.30094701707760   -1.81028648517532
