    26
        -50.45984602  Gyration_radius:  2.57378773776 Dipole_moment: 6.347
 S           0.39433767598193    1.18908214707137   -0.10381054137211
O          -0.95398997563063    1.15148400522019   -0.86426639608957
O           1.38678419158209    1.86405015977531   -0.89450498426862
O           0.10096310669944    1.85449416831875    1.16912470175226
O           0.76213791763253   -0.22068898109520    0.16824806932262
O          -1.52066199271731   -0.99895849299526    3.40126499992544
H          -1.70021455673940   -1.13628936590833    2.43949445512483
H          -2.21288716816747   -0.41928667174422    3.72401566392551
O          -1.68236297632356   -1.00963896168518    0.75066080546568
H          -0.75720885356161   -0.76104444297571    0.53109170240744
H          -2.21438844030473   -0.34291022368051    0.30656445776745
O           1.84446146350501    1.14847178265891   -3.38522728676312
H           1.92241946640844    1.96949226807902   -3.87405138332162
H           1.80132653562162    1.40469923601710   -2.43664346472212
O           0.14533017347605   -2.17922408484186   -1.58890941699094
H          -0.61299329948842   -2.52405113385988   -1.11025770070792
H           0.57546017700398   -1.54701150208849   -0.98394920646429
O          -0.52442974273752   -0.01939053046697   -3.04955436142696
H           0.33279497226265    0.35939805146173   -3.35105781379820
H          -0.30920052130647   -0.92135039739444   -2.72940469071933
H          -0.81184945253139    0.71659915792013   -1.79485709781660
N           0.83092439049464    0.07172294538672    2.78323314266330
H           1.55435989045809    0.25302131697797    3.46993007615993
H           1.16809387676727   -0.49489114858089    1.99154459495563
H          -0.02741681480720   -0.37996851443932    3.19855949821949
H           0.50820994642240    0.97218919286972    2.23276213677974
