    26
        -50.45450810  Gyration_radius:  2.46056254958 Dipole_moment: 8.293
 S           1.83527969851689   -0.90910655936097    0.91850887904856
O           2.30879626482068   -0.57919579878832   -0.43222239235744
O           2.84346612345300   -1.27434348733363    1.85163945476510
O           1.14887300780505    0.46058903526965    1.42000579030476
O           0.70123008639819   -1.83824301515279    0.84618109555416
H          -0.85332370277720   -1.62397535591477    1.26993168220057
H           1.50982474361274    1.15025767945413    0.82791398757413
O          -1.83107891875748   -1.51894204711275    1.39394534084129
H          -2.03278728645835   -1.94508992924115    2.22793955165851
O           1.50026828064830    2.54742012906594   -0.19844126506977
H           1.54176957426498    3.34298089122662    0.33511418449798
H           0.60291477504521    2.49880402263049   -0.57088858195723
O          -1.49792074903200    1.14300412873438    1.40891406331683
H          -1.84664935590071    0.22746022693319    1.39566430009379
H          -0.56912457943299    1.02746797317797    1.67241746143944
O          -1.07705323871668    1.95304616979634   -1.00504803534456
H          -1.30645933865965    1.65496389716458   -0.06960727402952
H          -1.84338457914984    2.42472754359313   -1.33264673252850
O          -0.87687815192199   -2.50278608862647   -1.17280050891917
H          -0.17726877948279   -2.52288849354389   -0.48414222868761
H          -1.69019906915001   -2.37108242980235   -0.67264139355923
N           0.30505257838464   -0.25454373706342   -1.94826857764102
H           1.20131045682602   -0.36009779544030   -1.30854442453776
H          -0.22759709590793    0.58692005804554   -1.67211265468684
H           0.59574449552742   -0.18982937942917   -2.91771446080563
H          -0.26480523997818   -1.12751762829601   -1.78309725118915
