    26
        -50.47371635  Gyration_radius:  2.37471375833 Dipole_moment: 3.043
 S          -1.36973065658519   -0.54096580860938    0.55934431573525
O          -0.46280598212954   -1.47641967483755   -0.09422890725933
O          -1.01636846489233   -0.29531399645705    1.93740631972300
O          -1.44848401517886    0.70604861916124   -0.22069477315483
O          -2.79659979630862   -1.17968733719671    0.55976012016316
H          -2.99965825018538   -1.31745284547941   -0.38155854629062
H          -0.48150375902138    1.79090276039843    0.72935761176402
O           0.14041860977130    2.11314739137640    1.41067986957404
H          -0.19723636557617    1.71123525331417    2.21938994670442
O           1.61769532643392   -0.44004789888263   -1.39690836848391
H           1.19000873353210    0.26598860571926   -1.92104436547436
H           0.87701677001581   -0.93936723649005   -0.99062584936539
O          -2.35688382397663   -1.01321463144853   -2.07310605853498
H          -2.08149316894922   -0.19105605959349   -1.63660880685018
H          -1.60123835426750   -1.60589231270106   -1.99833380937493
O           0.00864568417750    1.49225146934707   -2.35450611638534
H          -0.55107952399974    1.35553296810969   -1.56763616396856
H          -0.57393639712636    1.45668944793692   -3.11536255762685
O           1.29814775916537   -1.51773836276327    2.15619387748793
H           0.40814893141378   -1.11329817773489    2.26283891343656
H           1.17116587903494   -2.16211150740235    1.45256240381633
N           2.27736529467067    0.59970725725749    0.90011950177650
H           1.53081878496652    1.32305205538694    1.09116181843135
H           2.15228185944839    0.25021307491838   -0.10762395717555
H           3.20779330819325    0.96501269048722    1.06805138556598
H           2.05751163740785   -0.23721574383182    1.51137216577132
