    26
        -50.46400561  Gyration_radius:  2.44076039164 Dipole_moment: 7.378
 S           0.21726624219622    0.13848307127566    2.31690204454297
O           0.25371919466371   -1.14234094102231    1.63080662780264
O          -0.26608050656379    0.10057388478892    3.65741803024030
O           1.74050469340091    0.63926444773302    2.39836076659070
O          -0.41850790315381    1.15209217217923    1.46182906524476
H           0.74450035505631    1.48550616743389    0.42652295498270
H           1.94750088575648    0.33548894775711    3.27396431904283
O           1.40351405624909    1.65801061584608   -0.29502885022584
H           2.08235466698443    2.20467078400034    0.10262081686283
O          -2.37388486081280    0.67222310795362   -0.15505017821665
H          -3.13882957551845    1.16618119573188    0.14273576513976
H          -1.66485841309376    0.82995371816565    0.52416760381973
O          -1.55594261434001   -2.04611147982620   -0.14921649574137
H          -0.92951315646563   -1.88576821524773    0.58210044029562
H          -2.11348442918747   -1.25796837189456   -0.17716868612151
O           2.04594114326622   -1.07462474308079   -0.32840803694264
H           1.48132975138478   -1.22899996523082    0.45614798912485
H           2.10623731663746   -0.11075877525608   -0.39476375431448
O           0.19118768687538   -1.68672230876552   -2.09119026240883
H           1.01070481408964   -1.62394071956504   -1.53482338964597
H          -0.49741622297552   -2.02796218383194   -1.46461066690352
N          -0.46117045708427    0.77031895762568   -2.09782521296816
H          -0.17454467651237   -0.32135123121451   -2.18430418606706
H          -1.30552689594950    0.81320103573586   -1.49522342393156
H           0.30630485718284    1.24980095770177   -1.60209929047535
H          -0.63130594208554    1.19077988100679   -3.00386399972744
