    26
        -50.45839650  Gyration_radius:  2.49739760099 Dipole_moment: 8.801
 S          -0.68661234951715   -1.33964111960083   -0.02111264065631
O          -0.12569821597632   -1.07465512219584    1.30779265135674
O          -0.23871999890227   -2.56752266958637   -0.59867339847173
O          -2.23276234313691   -1.40346742300102    0.15031003553650
O          -0.41500979812696   -0.16342429991077   -0.88603250136733
H          -0.49172117825468    1.32570844831480   -0.47965460550109
H          -2.52288449136433   -0.52790918244990    0.48834689101380
O          -0.54445899332198    2.26406964701689   -0.12887762723842
H          -0.40035318622470    2.83478397771955   -0.88576465633978
O          -1.71473043982504   -1.60395554962656   -2.85738531827057
H          -1.27685389023621   -0.92825155563363   -2.32825125404820
H          -1.47610366637731   -2.42909388696192   -2.42550936100412
O           3.39600633705347    0.32279528434064    0.70122626776798
H           2.99073698643698   -0.19575887589507   -0.03782706749628
H           3.92962368653174   -0.30315990463884    1.19382597071189
O           2.07204029916003   -1.11076196255486   -1.09086110080392
H           1.24939413510790   -0.61369465611773   -1.23458067338947
H           1.75417952247064   -2.00750426201781   -0.93028078033407
O          -2.89923312855295    1.10342891724424    0.78796851775248
H          -2.14084994428740    1.65794609918389    0.53528793295042
H          -3.60235610543735    1.28788591480734    0.16080145531081
N           1.08611661867003    1.12573021642194    1.73746516833552
H           0.60479856982660    1.81109041565753    1.13031392786016
H           0.54572552666036    0.18419306421497    1.61104724261476
H           2.06452220529564    0.93349841540535    1.39227512977291
H           1.07520384225699    1.41767007993857    2.70814980391344
