    26
        -50.45909911  Gyration_radius:  2.47752785639 Dipole_moment: 8.431
 S          -1.39308443194612   -2.03867921675804    0.20850184763043
O          -1.34340779735071   -1.79173850417503   -1.24430138502143
O          -1.52260967637665   -3.40696117646160    0.57036050414967
O          -0.22702382100663   -1.36959548965539    0.83556816098532
O          -2.64530697694883   -1.24962905717078    0.73385348571588
H          -2.46705084235097   -0.32703086772454    0.47800626971003
H           1.21455696305055   -1.28721384038989    0.33042059843503
O           2.14773404771990   -1.13486824660785   -0.02237086569683
H           2.67293144166256   -1.85282827819260    0.33322311371923
O           2.03309946061826    1.46333134116475    0.75833201997453
H           2.15643256332894    0.52306386525182    0.50766260749757
H           2.90194965580418    1.82558651379805    0.93478296416069
O          -0.29157176902987    0.85727830043040    2.22841704453620
H          -0.28262104459118   -0.06997984033917    1.90091432589601
H           0.54970839832530    1.22977309748023    1.92776730121410
O           0.10134644686419    2.04739819763991   -1.15419581530151
H           0.76976342267080    2.04430357632419   -0.44832633437911
H          -0.75556471350708    1.91612898155535   -0.70831521506726
O          -2.04992444752074    1.37906172168483    0.40134255604665
H          -1.42698745963469    1.26944181301619    1.18140650285847
H          -2.80632131303742    1.87324537322847    0.72058779277040
N           0.55336975711800   -0.37223619333744   -2.12298683572232
H           0.35993920388452    0.63543760853138   -1.85325574875935
H           1.38229092971131   -0.69947152350829   -1.61006718842396
H          -0.29609643918062   -0.98629065332912   -1.76278282374188
H           0.66444842171991   -0.47752748245791   -3.12454489318499
