    26
        -50.46276845  Gyration_radius:  2.52137719271 Dipole_moment: 7.597
 S          -0.27804139905154    0.48821377840842   -0.59136681298186
O           0.47357898301673    1.39452600357358    0.26110097463644
O          -0.38253174893732   -0.85219171536051   -0.00576311429709
O          -1.69575686683311    1.03919357408961   -0.79165950234841
O           0.30635560233335    0.39029880077319   -1.93485551903153
O          -0.54877573049761    3.05317376994207    2.08094903914215
H          -0.05291845414357    2.44850422050057    1.49230098021195
H          -0.47812207413331    3.92412963009508    1.68698974051301
O           2.77466739013000    0.30491250444104   -0.45899961165152
H           2.80024374254866    0.61641392181979   -1.36615093642283
H           2.00785064834890    0.76632066625766   -0.06278031924142
O          -1.74870115977363   -0.93099894305108    2.25760731250286
H          -1.17903540183691   -0.93289336208504    1.45793105730064
H          -2.32608171867623   -1.69200322614949    2.17996768190656
O           1.90557446862515   -2.18695940721537   -0.06351052213414
H           1.06009148616768   -1.83022379161669    0.27751740131169
H           2.48345483053303   -1.39387848298313   -0.09409216532198
O          -2.64147270191174    1.48176058467890    1.50419686719572
H          -2.42745293241158    0.63966807120701    1.95959507540325
H          -2.00746324019279    2.13907176950433    1.86448695550028
H          -2.12731700580106    1.23733186117448    0.12621220062024
N           0.81849740397209   -2.05150518727210   -2.39250403761092
H           1.37503740836790   -2.20876186728535   -3.22600216672708
H           0.55780604552586   -0.98618574750579   -2.27518173091938
H          -0.03665363899637   -2.59706170463998   -2.41675675837614
H           1.36716608362653   -2.26085574130189   -1.46923209918017
