    26
        -50.44549898  Gyration_radius:  2.58455338079 Dipole_moment: 5.796
 S           1.84319108026806   -0.95674963461009    1.51092487822800
O           1.48118062241778   -1.47697672769927    0.20946071252317
O           3.10827629435753   -1.32999735531685    2.01940302878125
O           1.68213483307927    0.59112764797589    1.43992714764886
O           0.75131783789814   -1.33902071847264    2.53446276722879
H          -0.15198445316275   -1.05113893001972    2.21000017701387
H           1.86374548966539    0.83603062666719    0.46172193602593
O          -1.58893794654939   -0.50599732319921    1.79354565352033
H          -2.14712668643438   -0.51359897155613    2.57294685693007
O          -0.87403270640158   -0.87388526873680   -3.57217163974754
H          -0.63155364144110   -1.58045244068266   -4.17121649419904
H          -1.01357838714246   -1.28138364517500   -2.70596588770458
O          -0.97756692019859   -1.35828507142480   -0.76809915845352
H          -1.49070753218193   -1.28256463588319    0.04638282019340
H          -0.05808221806948   -1.52662857046573   -0.47238254357272
O           1.96798673539219    0.90106880491887   -1.04349488068333
H           1.04756715117196    1.11982427581560   -1.33930379823363
H           2.06171421271329   -0.05226610045286   -1.16750092934208
O          -0.60777215800927    1.16911830543543   -1.64679868633726
H          -0.83365763950235    0.27866748813698   -1.29287156503233
H          -0.72683592140962    1.07149903411245   -2.59798735270373
N          -0.95143797579218    1.94863475461108    1.18882553756741
H          -1.40435629183921    0.47212568075727    1.56749746859127
H          -1.41481690492045    2.76940662445479    1.55636410235791
H           0.01710511177481    1.96028763248594    1.49168601718104
H          -0.95177199568135    2.01115454831757    0.17464381224104
