    26
        -50.45487318  Gyration_radius:  2.53894662033 Dipole_moment: 7.692
 S           2.22609102381469   -0.27794383548457    1.26697955266497
O           2.08903780223665    1.09196014317418    1.69172651607770
O           3.33477975788198   -1.00784329450144    1.78720830955242
O           0.91450733445840   -1.05519944004911    1.87509770262633
O           2.02003068065934   -0.41604037779222   -0.18255843249645
H           1.33293241363234    0.71146772960023   -1.02731538103618
H           1.30106148985320   -1.23225105695769    2.72497068882390
O           0.82836391853736    1.32276377449097   -1.63953124420786
H           1.48559629306968    1.70279011942351   -2.22400882120232
O           0.36269580163861   -2.35459521049337   -0.61668180484973
H           0.03594282989559   -2.55689584658561    0.26364816256852
H           1.11231198401410   -1.72402446502924   -0.46739362636283
O          -1.54640473679084    0.30922717318305    1.63813792389316
H          -0.80657005016329   -0.29178857024177    1.79197549618576
H          -1.11548568271306    1.17269275480582    1.42269446893265
O          -0.07390356336358    2.35294445678457    0.83172179993988
H           0.09237100151384    2.26619150312056   -0.11558733440962
H           0.74849844957180    2.02176134447523    1.25344105878734
O          -3.08062835367807    0.01398032200880   -0.43113482252858
H          -3.54453566009186    0.85092770696997   -0.48611006049546
H          -2.56936730580385    0.05048132312733    0.42785099924482
N          -1.03952350614809   -0.58802803593477   -1.98061296041498
H          -1.27531567023009   -0.87422832027412   -2.92440610792417
H          -0.37586533304848    0.21999539844214   -1.98537755140729
H          -1.91146726367875   -0.32761803285493   -1.43061675759723
H          -0.54515364502437   -1.38072725366183   -1.46411774465840
