    26
        -50.46312448  Gyration_radius:  2.44050116467 Dipole_moment: 6.356
 S          -0.07810799990669   -1.10035049871537    1.52501094035333
O          -0.34955386778604   -2.43065911354539    0.97146172509167
O           0.33509133299547   -1.08772738844847    2.89019624847065
O           1.13796754946933   -0.55981984670319    0.65378281827436
O          -1.19324472794481   -0.18974483471168    1.21609653935592
H          -1.81573766109698    0.04867588508318   -0.18211220229884
H           0.83166780538369    0.15348864847518    0.03688353016929
O          -2.10644698493660    0.17409949418587   -1.13406745807962
H          -3.02828391662085    0.43165003071868   -1.09596567715383
O           0.48002015005626    1.23801998561310   -1.14561571207909
H           0.64038807155199    2.03414432430765   -0.58101272126326
H          -0.47794397769275    1.16734342699910   -1.26555128184982
O           0.94855000812484    3.09577771469762    0.66042979545758
H           1.85882782819527    3.32335717721870    0.85452716383409
H           0.60671409202012    2.63513907581304    1.46269062862032
O           1.74660645229247   -1.00691492345686   -2.11223880268286
H           1.47676278776241   -0.07532058133335   -2.05594723940327
H           2.20525159922926   -1.18258731095743   -1.28324645355216
O           0.05207915876710    1.61806083365013    2.69469693920440
H          -0.64020532744601    1.13009229616974    2.21631565002984
H           0.52732259389627    0.90757032853988    3.14468429422919
N          -0.64163319685396   -2.07784385841015   -1.52341576343997
H           0.29622617267533   -1.75099478434462   -1.87392754821252
H          -0.53071576437670   -2.30217432668733   -0.44702612977187
H          -1.32097749021049   -1.29699390241840   -1.59644210957184
H          -0.96062467751935   -2.89628787169518   -2.03020717369767
