    26
        -50.46836213  Gyration_radius:  2.53772111115 Dipole_moment: 1.218
 S           0.46891836930959   -0.71581639174244    1.71373177053895
O          -0.69874392864052    0.15713596306504    1.64968984164229
O           0.71053729321027   -1.35847247439575    0.43660502718823
O           1.62999250391883   -0.04084885845282    2.25697842496037
O           0.12183787678765   -1.86681728802931    2.74351270979232
H           0.42143029104445   -1.48330544905436    3.56073381432254
H           2.16130374038295    0.98878518522168    1.13193682581862
O           2.41722747669110    1.62581385999045    0.41876829418712
H           3.15654016979268    2.12830150721716    0.76550600557766
O          -0.23933121341277    2.19256239939740   -0.03390190735229
H          -0.51790134782897    1.61871536595925    0.70542996217490
H           0.72269698576126    2.27894625568079    0.07021868509913
O          -2.87169820511920   -0.74058342572104    0.43512798382613
H          -2.04457835491061   -0.47480668964870    0.89429982841204
H          -3.54867893635218   -0.14564650474789    0.76233955061658
O           2.45437231277464   -0.25458251246371   -1.64230322345921
H           2.60618553282891    0.50435308809498   -1.05632190185356
H           2.23916936264819   -0.97980331055343   -1.04420400538322
O          -2.62944846446502   -0.94665936866375   -2.22439957292175
H          -2.72515682003525   -1.87434242173678   -2.44475549237788
H          -2.82251990050882   -0.87594309641148   -1.26158737095659
N          -0.21776832491134    0.05700764773986   -1.60313426316000
H          -1.08415475082810   -0.26561541201909   -2.08234490500898
H           0.63511034802687    0.04923259727409   -2.18037047289995
H          -0.34294200805324    1.01139212469230   -1.16899106448185
H          -0.00240001814605   -0.58900280066370   -0.80256453434515
