    26
        -50.43602480  Gyration_radius:  2.62127674676 Dipole_moment: 10.822
 S           0.37690421481969   -2.68290626564218   -0.68301641444793
O           0.76793998438352   -1.33702860814027   -1.01129902526480
O           1.21305502838583   -3.73560388565467   -1.13362745402244
O           0.24137364581272   -2.74218630264952    0.88602942319415
O          -1.07137130896858   -2.92731676539556   -1.13832941376908
H          -1.56519322626557   -2.07405984781524   -0.92276931908005
H           0.67905807664504   -1.95542607671276    1.28694479222800
O           0.08408037007306    2.59710006595273   -0.16994556092413
H           0.39837438467981    3.48605674843305   -0.00172440144413
O           1.12986493627948   -0.63040677116339    2.22017264572024
H           0.36817944532473   -0.06200425289265    1.99602842105197
H           0.98638321911892   -0.94792650137208    3.11427815429027
O          -1.03503636639667    0.87696646739815    1.53792639514670
H          -0.66786519347330    1.54713835575516    0.91555781439108
H          -1.76113141496717    1.29289348427051    2.00531066523958
O          -1.46562536597293    1.40531342839119   -2.14035207236369
H          -2.13324664888355    2.03932472424888   -2.40578630461918
H          -0.86029342558040    1.86175982295958   -1.53174491894936
O          -2.13930789978003   -0.68155474886294   -0.52895380649938
H          -1.89904759887115   -0.06939736059879   -1.25370354166983
H          -1.68963816730631   -0.32853002142580    0.25519620223030
N           2.11359498502051    0.99472619680069   -0.25292609745153
H           1.65135982794295    0.17009431284502   -0.64497825581876
H           0.91840746758117    2.00214069030739   -0.24579122859670
H           2.42983880396613    0.72061502377643    0.67027478055486
H           2.92934220643412    1.18021810719828   -0.82277147912637
