    26
        -50.46201507  Gyration_radius:  2.69152404299 Dipole_moment: 2.867
 S          -2.50586419242477    0.98378013992700    0.38991231812844
O          -1.61346493454556    1.88908284807048    1.11486968540509
O          -2.07237546141388    0.73697258719190   -0.96271439462945
O          -2.74605744304195   -0.23105779049276    1.15695037826557
O          -3.90115289338318    1.72955407425374    0.29464202888673
H          -4.14793873909840    1.78556939293706    1.21200020542546
H          -1.47411314754950   -1.14298221421015    1.14011192329906
O          -0.61137109722445   -1.64433343606188    1.20140879182068
H          -0.79835749542080   -2.42864582005880    1.71998008664474
O           2.26390630768372    1.13653418819247   -0.50113141078594
H           1.60697363013579    1.06713240965130   -1.21843281820733
H           2.74276396261391    0.27734545815481   -0.49931699054099
O           3.13096589125432   -1.38974133989986   -0.44293170924285
H           2.24082618079874   -1.72560693890612   -0.72061953777299
H           3.76015685097965   -1.76135346297662   -1.06161586463075
O           0.67581447992052   -1.97596741258321   -1.23745537951526
H           0.45690773440829   -1.15374437738254   -1.70808291541190
H           0.13200295953009   -1.96384582187632   -0.43354630624980
O           0.20082447282818    0.57816286502951   -2.19329278715508
H          -0.65298605375506    0.67629084869802   -1.70216473233188
H           0.01293304316496    0.85561632854110   -3.09092369025866
N           0.67396292518782    0.73883276323847    1.52687883328920
H           1.36284215551310    0.96130149336445    0.72458260541897
H           1.08385486988783    0.97250658419553    2.42454542951539
H          -0.22872378113327    1.29061018933478    1.37455176431648
H           0.40766976511613   -0.26201355631697    1.49179448634740
