    26
        -50.46398564  Gyration_radius:  2.38099710561 Dipole_moment: 5.048
 S           0.51094428711407    1.60531460510961   -0.42561707845640
O           1.66518651219345    1.97557430817521    0.36524950097709
O          -0.06135730138522    2.62924101436214   -1.26088793068636
O           1.03978898140511    0.49112486076270   -1.47935106338550
O          -0.49523185780752    0.90594958499890    0.35995824012545
H          -2.68798546304301    1.82891670627133   -0.20299705930029
H           1.42055743273591   -0.23323661401700   -0.93605191390417
O          -2.55021364717862    1.82469790520951   -1.15428942381522
H          -1.67312510891182    2.26770826197005   -1.27469606484883
O           1.91686066372227   -1.50962709794642    0.04921986170282
H           1.93381140812407   -1.00306691889574    0.90149853443160
H           2.81808567962399   -1.78482967325443   -0.12789555211860
O          -0.77901122990090   -0.82291060482969    2.33073556692780
H          -0.78948310443011   -0.06554012309713    1.71269548732278
H           0.10889346145455   -0.79722900909329    2.70202314522759
O           1.96210834116217    0.11607862436427    2.11722414446261
H           2.74188591371984    0.36203632416793    2.61828902610913
H           1.78144910643184    0.88903489744219    1.51049440549877
O          -0.83158526395103   -2.24205640025941    0.07599356967744
H           0.12953951234907   -2.24114810268386   -0.02933625506676
H          -0.97136090502637   -1.83895557342099    0.96684800881973
N          -1.45800304578655   -0.48748811778107   -1.78430114459391
H          -0.50633790867378   -0.10728681689856   -1.94477737392713
H          -1.83950815259283   -0.92009690737358   -2.61975588270063
H          -1.34646400102775   -1.19957068330121   -0.98749613433154
H          -2.03944428031860    0.35736557002002   -1.48277662415529
