    26
        -50.44406318  Gyration_radius:  2.54541966773 Dipole_moment: 2.453
 S           0.35949615528334    1.38109918698850   -0.75548529828307
O          -1.07156444348019    1.25711710169624   -0.90726933500691
O           0.79134638912703    2.44147691609908    0.08935888008646
O           0.87402200412469    0.01156087086206   -0.19188256297664
O           1.05348929171761    1.46535486603513   -2.10419912663874
H           0.88553953366168    0.60017632830715   -2.64821465721791
H           0.16045956710795   -0.25973060583290    0.46834190001995
O          -1.10151839786729   -0.17094804126620    1.41875983725433
H          -1.56106330469817    0.44774258963273    0.83455981090778
O           0.53401690988373   -0.62490312331109   -3.40813971027275
H          -0.33085256363231   -0.91141383982485   -2.98183547780393
H           0.32380701268627   -0.39058652785425   -4.31511082271570
O           2.64934451621056   -0.36102367531386    2.02550406341297
H           2.27364731504174   -0.16987012015932    1.15688210652902
H           2.88894706674894   -1.28939047485596    2.01989395113717
O          -1.70409102805401   -1.02597673015479   -2.18808963508819
H          -1.67050133779145   -0.15570453817734   -1.75056024157444
H          -1.65861416456503   -1.68621357598947   -1.47003771531370
O          -1.64113047532626   -2.53555410777602    0.10001935314857
H          -2.46004628405774   -2.94775423572884    0.38000413052851
H          -1.45563941249328   -1.82067907160309    0.72982216632645
N           0.40607460428601    1.42078140174336    2.79363647000158
H           1.26246863985059    0.89333776535111    2.94226522958302
H          -0.61923758315472    0.40424701921284    2.10855211861621
H           0.21932419805029    1.96300385916809    3.62722370916972
H           0.59227579127856    2.06385077258493    2.02600085619444
