    26
        -50.44043808  Gyration_radius:  2.55200911877 Dipole_moment: 10.115
 S          -1.85914111277537    1.02582193488261    1.56935326919394
O          -1.42884447792368    0.63181265333481    0.24978115918825
O          -3.22863177950866    1.32461094004392    1.74750305857500
O          -1.46643069082031   -0.14785629244730    2.53279547822414
O          -0.98958863417052    2.20618987147610    2.04406524496641
H          -0.03487736535928    1.98489081389698    1.81871480271184
H          -0.64442472755046   -0.56611545853133    2.19569297518189
O           1.11752455675100   -1.81824535426331   -0.89300780156725
H           1.44000764282889   -2.62560819613845   -1.29497587509656
O           0.78555677404773   -1.32550981861648    1.70836555389930
H           0.87372241159295   -2.15854770001117    2.17477107026111
H           0.86532897255204   -1.52145176875737    0.74406719300508
O          -0.47675211803559    1.53868359167197   -2.24299569631510
H          -0.94845696652688    1.41712529290716   -1.40754441486444
H           0.45592233178751    1.49497388679354   -2.00184695821458
O           1.37567161832501    1.38432181970987    1.47318314385619
H           1.35005623786902    0.45724712843084    1.74746787888987
H           1.55077444502885    1.36229181488005    0.51306873267535
O           2.03626150571300    0.75235915381382   -1.10697440859494
H           2.95146963096415    0.75365530012763   -1.39028113642484
H           1.74041597305290   -0.17886146309077   -1.07446838261560
N          -1.18424502665086   -1.24016726816711   -1.88981643420211
H           0.19282769212762   -1.62842658200544   -1.31212745050872
H          -1.01149422077840   -0.48516082220048   -2.55172614396474
H          -1.88253863542780   -1.85926049495845   -2.28090281134681
H          -1.58011403723162   -0.77877297283074   -1.07216205692587
