    26
        -50.47468844  Gyration_radius:  2.41756935418 Dipole_moment: 2.070
 S           0.77025334851848   -1.47773629937278    0.43872121940190
O          -0.12749651491767   -1.45980439034466   -0.71947285730243
O           2.14297302036151   -1.28327489552917    0.06799773328941
O           0.31693413841624   -0.49962800556358    1.43930989538688
O           0.62435891900778   -2.88669047061678    1.10120112335855
H          -0.29574018869174   -2.88598083820286    1.41283460229722
H           0.63272588122244    1.05732317979489    1.13659953014809
O           0.81526936232379    2.00377519513778    0.91389979439459
H           0.97888951798547    2.44703725354781    1.74761911515258
O           2.58346015763739    1.11252383969659   -1.02199876038288
H           2.64342230301709    0.21231687888490   -0.63959212043552
H           2.17910301399768    1.65202809144555   -0.32239863474715
O          -1.69530433628908   -1.95926753157812    2.14741474115599
H          -1.03080003049342   -1.25086481662902    1.98672361480467
H          -1.76100079429541   -2.06577154923756    3.09844026201741
O          -1.26548497807444    2.12653509732642   -0.90448194394481
H          -0.62379864932056    2.28462953127671   -0.19099782185383
H          -1.85355110692438    1.41482260235885   -0.58086935982310
O          -2.41104549268796   -0.19595555491019   -0.12215073881103
H          -1.63590856798102   -0.72965710046504   -0.38406542366485
H          -2.73996426811190   -0.61475187885209    0.67731919572711
N           0.34917971405145    0.60206105078560   -2.29636470893158
H           1.32354549747672    0.88443042312100   -1.97073887419292
H           0.15078840075665   -0.31394298747122   -1.81939257214460
H          -0.35150066763383    1.30352570946836   -1.89141571341631
H           0.28069233069131    0.52231747599112   -3.30414130755359
