    26
        -50.46698928  Gyration_radius:  2.47887867471 Dipole_moment: 3.031
 S           1.18370357620306   -0.90443628639596    0.42619564703971
O           1.38065573384661    0.37089435560195   -0.31226523046770
O           1.34712578132796   -2.02954686997250   -0.44722978768864
O           2.25695849130714   -0.91611963150708    1.56010840664756
O          -0.11058521006459   -0.88667850998038    1.09621146225940
H          -1.80539967875402   -0.44178301483344    1.38918273740646
H           3.09978937177067   -0.70654207549558    1.10999203741191
O          -2.74804823736736   -0.23010418233801    1.27873033831829
H          -3.14867662977801   -1.01470581799621    0.89873893418130
O          -0.00287357625812    2.04463389332569    1.26724884887001
H           0.58139720112423    1.50253234383653    0.70507787786246
H          -0.23948502310614    1.47615198194139    2.00452905881238
O          -1.34318026971942   -2.15921233737131   -0.89505746504688
H          -0.98790622011792   -1.83856423425668   -0.04127863366408
H          -0.63665936122366   -2.72950075149027   -1.21775930833363
O           4.01871909797063    0.19528108326223   -0.07426858592504
H           3.13124840717839    0.39202422560174   -0.42655626497768
H           4.38701215597812    1.02932389923657    0.22702409811455
O          -2.19434858766983    1.88133080480352   -0.27800172327950
H          -1.44933104663963    2.20487073613127    0.27579114234443
H          -2.63807705345469    1.22141744488723    0.29602878058772
N          -0.81875180924619    0.30740954724944   -1.80334007547933
H          -1.15083974797832   -0.67475891239744   -1.62321507035382
H          -0.78038532339675    0.51718700683807   -2.79483512998651
H          -1.46159796364396    1.00627872670837   -1.26070139675843
H           0.12953597170549    0.38261656462797   -1.36035069788845
