    26
        -50.46544233  Gyration_radius:  2.54244031498 Dipole_moment: 6.086
 S           0.44098042562952   -1.34325704211649    1.73887968402733
O           0.48160324327527   -1.59624946519889    0.30309709779664
O          -0.40909418244116   -2.24642160152435    2.46169153715932
O           1.91988259899858   -1.58930945791180    2.27244800471517
O           0.17862096697792    0.07132141281007    2.00321708031480
H           0.61234944864813    1.21364851639407    1.03563225518538
H           1.87587836034892   -2.49657250368248    2.55557997534867
O           0.81989012707696    1.96624334136090    0.41095925960078
H           0.94174878627781    2.73523822459897    0.96952211880309
O           2.14133994198407   -0.05779547010817   -1.08663839281142
H           1.61300518753312   -0.73758174052349   -0.61815841655649
H           2.01172777649746    0.74920176714182   -0.57236477718773
O          -2.43323096148363   -0.49930211790809    1.99178569642813
H          -2.23652150959710   -1.37925228906609    2.34008503602862
H          -1.59651902509293   -0.02643494512277    2.13440122165722
O           0.86017854551440    0.55095499002153   -3.29783123963901
H           1.45976736092451    1.05078079913438   -3.85260301635219
H           1.40833457417785    0.19175594467066   -2.54942198450313
O          -1.90488154984077   -0.90847914741566   -0.58352444322905
H          -2.31969318896142   -0.75574037371901    0.29680370159603
H          -1.04806654098669   -1.33856840964392   -0.37374760525748
N          -0.97654233980889    1.31541105428397   -1.52360728677329
H          -1.42695969314060    0.39019478785777   -1.15817139973238
H          -1.69051433113624    1.98480859692638   -1.78719875605112
H          -0.36005040744985    1.68830493197860   -0.77124471787585
H          -0.36323360395602    1.06710021672989   -2.33959063268988
