    26
        -50.46215451  Gyration_radius:  2.43467877371 Dipole_moment: 4.418
 S          -0.37354625320160   -1.16325686218226    0.92203708608756
O           0.82903353922687   -1.62127191749458    0.22480366753909
O          -1.35527897180264   -2.19885079281107    1.11765453465546
O           0.06615408552663   -0.61699562697778    2.30539911625219
O          -0.96518783649133   -0.02381460434023    0.18926544876879
H          -0.32150183944449    0.77351740007384   -1.02292930356183
H           0.98767466917127   -0.24164603189769    2.16841892375928
O           0.07084591671540    1.19738045948432   -1.83400056515978
H          -0.54659600938320    1.88202907449894   -2.09782106241195
O           2.34353140282186    0.52489456852477    1.93540142228533
H           2.14018559759125    1.23675852221311    1.27154157637162
H           2.67031863377739    0.97184224475105    2.71889519498801
O          -0.83947582751539    2.17435230019052    1.65730777826658
H          -0.77583295995081    1.87881595289848    2.56752022320812
H          -1.01214270227841    1.36171844128816    1.13665850314531
O           1.50926256432373    2.42494240060490    0.31910577166794
H           0.66517011989355    2.54829032494423    0.80016284316320
H           1.26704604590889    2.05345637575666   -0.54065485033141
O          -2.26650915462803   -2.11280378266370   -1.33705491221000
H          -2.83272259057257   -1.34049977707296   -1.26525400174029
H          -1.98987678326109   -2.29723500689671   -0.40546837972016
N           0.15618850196074   -1.48991249476703   -2.21560849313546
H           0.58332321294783   -1.60379164266209   -1.21537029634872
H          -0.85155923468460   -1.77417981616735   -2.06495011370114
H           0.21391778243509   -0.47948318646752   -2.42994439920956
H           0.62757810090726   -2.06425652283355   -2.90511571260791
