    26
        -50.46676555  Gyration_radius:  2.47656962287 Dipole_moment: 4.266
 S          -1.05475280927514   -1.44041073103495    0.89794517325165
O           0.24531989930428   -2.03075201505340    0.64034779587582
O          -1.01992820077811   -0.36760961638726    1.86966602876783
O          -1.72215747872167   -1.04042093028143   -0.33830811139601
O          -1.94108990666474   -2.58516002826640    1.53538246069006
H          -1.74079020737564   -3.32880961180698    0.97696900804225
H          -1.41658517287897    0.46454178552914   -0.84360323886502
O          -1.18413193987135    1.33988078335640   -1.24416354653132
H          -1.82419748586437    1.48587327558238   -1.94324457813247
O           1.25155343706653    0.28850518486230   -2.16934933527206
H           0.87643104487066   -0.58904881873738   -2.38544116760064
H           0.48862059854524    0.83604732049644   -1.93113615459917
O          -0.02952051539962   -2.11117146085662   -2.12258673541138
H          -0.76551492345334   -1.74530626319480   -1.59811605106422
H           0.52871883345580   -2.54617629156847   -1.47032520473038
O           2.30483225031764   -0.37100644547183    0.16305934462868
H           1.69285929234105   -1.11099790926042    0.34738502849337
H           2.07862550840135   -0.07955376871193   -0.75698099887923
O          -0.32839257352962    3.14358263643297    0.57561088096544
H          -1.11935376602810    3.33425796454407    1.08343813959549
H          -0.61635921341337    2.57288390678781   -0.16564616944152
N           1.07616494607528    1.19891162394777    1.79658564947871
H           0.70486672224642    2.06686839332679    1.34787399265064
H           1.55285028853732    1.40429925831430    2.66709748357206
H           0.24601348307888    0.56427546741115    1.95470121123930
H           1.71591787901489    0.64649630004631    1.11283908466971
