    26
        -50.46294845  Gyration_radius:  2.43454716316 Dipole_moment: 6.325
 S           0.99281585304878    1.02524231077173   -0.07138778334373
O           0.82388092656240    0.84978956995076    1.36204136918356
O           0.35821105553734    2.36943069011423   -0.46590392710522
O           2.40855751335176    1.03575493492271   -0.44789248376502
O           0.31399637831885   -0.05005007630845   -0.81345987033059
O          -3.17181110817118    1.43924699489288   -0.49291616285859
H          -3.55016356364522    2.28343021951699   -0.24328868666056
H          -2.70166558272296    1.10860490767565    0.31041405133788
O          -1.82026553223638    0.52685576790021    1.61621260718280
H          -1.77640111377200   -0.43130713436356    1.48359147103133
H          -0.88855497094126    0.81497195903509    1.63088449563005
O          -1.04884990147581   -1.90578580065155    0.43898087558330
H          -1.75466817555289   -2.22122887355070   -0.12729258849836
H          -0.57210212181540   -1.20749520568052   -0.07174777467816
O           1.34674065727698   -1.69630144439959    1.78111053776885
H           0.47983951823422   -2.06025180060586    1.54385157719146
H           1.19359796644699   -0.72464872836015    1.84432666318271
O          -1.21232914155024    1.56979532550199   -2.28967813327665
H          -0.78475406166980    0.71757977575728   -2.11436229168096
H          -2.04445330975990    1.55042140356659   -1.75919126172626
H          -0.25587290324403    2.20665512336570   -1.25911885127376
N           2.75925159395082   -1.47343550420644   -0.38642165739554
H           2.24338762351635   -1.84968330037240   -1.17672017345906
H           2.71957233312455   -0.37174520226527   -0.45869503163998
H           2.22725554686425   -1.69030991314353    0.53544139385300
H           3.71478453160185   -1.81553599864665   -0.36877835430089
