    26
        -50.46504860  Gyration_radius:  2.52086718794 Dipole_moment: 3.907
 S          -0.51622919746396   -1.53103992485354    1.64769183951330
O           0.70278080979410   -0.91945657941138    1.12071773866806
O          -0.44015011182814   -2.94489336150624    1.81778459580175
O          -0.69318919425824   -0.92141279524802    3.12451949793982
O          -1.67850217494002   -1.05296051391043    0.90098911678163
H          -1.40859617801956    0.50832322445093    1.39735968867934
H          -0.58039526680691   -1.71076465557398    3.64314923075479
O          -1.18176801170321    1.42835670598930    1.63602352820875
H          -1.13850748968944    1.42859144603732    2.59309371395149
O          -1.48974073558661   -0.53375497803939   -1.63559529322961
H          -1.58722874392470   -0.75973120439766   -0.67531864753915
H          -2.24200896133684   -0.93253360441740   -2.07573124194792
O           1.05078701908261   -1.66647249171312   -1.46693820775473
H           0.17540906376768   -1.34303295855742   -1.73549336786575
H           1.04156699578789   -1.62671345428863   -0.49501675238967
O          -1.05999476792396    2.10225095917873   -1.00425313061968
H          -1.44902684893319    2.12285669144012   -0.11727505813780
H          -1.30745127058905    1.23629867952431   -1.37969301939001
O           2.67583974850411    0.31084722324114   -2.08267992812053
H           2.48553978339504    0.55234217938837   -2.99040185312023
H           2.19757688438033   -0.54427405252687   -1.91817244258188
N           1.30355227347608    1.37772014607213   -0.05578660736094
H           1.04604875254293    0.51462460869798    0.49306639863618
H           1.94379300537700    1.08113798072208   -0.83593634681696
H           0.40288036326230    1.77157937864976   -0.46339626586137
H           1.74701424365214    2.05211137103399    0.55729282378234
