    26
        -50.45749190  Gyration_radius:  2.49197504958 Dipole_moment: 1.639
 S           0.71345824337673    0.40404730934572    0.77943024969726
O           0.21368915586746    1.72470205415898    0.41382614764429
O           1.82416979535371    0.39208637152654    1.67886421713736
O          -0.41462927705042   -0.43602930459279    1.23998306917826
O           1.15951305529518   -0.23813618550655   -0.58900987551143
H           1.87145220211975   -0.90683442032819   -0.29102777831144
H          -1.55080679107297   -0.28291334854057    0.45877652524086
O           2.83602245806426   -1.76121390744190    0.49808432475425
H           2.94891356205350   -1.04665867821930    1.14546123033289
O          -0.28576626781922    2.47725148358464   -2.05612967982149
H           0.01424692542549    2.24149655656368   -1.14697215588289
H           0.47013247798214    2.86904390034795   -2.49484114827227
O          -0.92434405028378   -0.10328980938206   -2.33028678098338
H          -0.79717418083746    0.85734818471167   -2.48644867435864
H          -0.09547262512775   -0.38624662860651   -1.90730364702460
O          -2.31328848738191    2.45943743920489    0.08530202212243
H          -1.40321306144521    2.36912957473606    0.43935579967608
H          -2.20759366061117    2.89737287609765   -0.76624595451826
O          -2.34241091911558   -0.06636464095286   -0.24112230075874
H          -2.51375564998202    0.93744905045267   -0.10427307448616
H          -1.87694381859075   -0.15371486194276   -1.17003015526467
N           0.84882887019940   -2.94704286437791    1.83110833519669
H           1.02957887518277   -3.10500393743603    2.81453153911503
H           0.30425701696550   -2.08795019788259    1.75555008058364
H           2.21918413211606   -2.39851626093807    0.94477978991139
H           0.27195204932480   -3.70944978456357    1.49863787461533
