    26
        -50.46010538  Gyration_radius:  2.57608952969 Dipole_moment: 4.910
 S          -0.97219974876066   -2.46868705767801   -0.43856833597074
O          -1.10293039227525   -2.26051551723658   -1.86252969072896
O          -1.35673488356178   -3.74919330256721    0.06012830504506
O           0.63142101441658   -2.36993539299685   -0.14106818895521
O          -1.49963466427889   -1.32986464441225    0.32570461200440
H          -0.47806569109161   -0.83583857507932    1.41787283013187
H           0.85748955890216   -3.27384339247264   -0.32907682726084
O           0.23262627862547   -0.47387984345918    2.01452395816038
H           0.42001517806666   -1.16762289162182    2.64767244954138
O           1.69347786071641    2.89469905065310    0.32899776124799
H           1.49078457359362    3.49900569076126   -0.38652732272993
H           0.84770971720841    2.77211176054676    0.83561366035511
O          -0.58513782365266    2.17840768412264    1.43555154641965
H          -0.36982215465697    1.36310431715716    1.90810678493587
H          -1.14424611121608    1.89873743013479    0.68806480651334
O           0.13334611488058   -0.00160674811604   -2.11948272832614
H          -0.59065628970104    0.58918808514675   -1.85439890469530
H          -0.28308783825342   -0.90021331352608   -2.12906781081185
O          -1.95225720711631    1.03432630677067   -0.66573593387075
H          -2.88249954734860    1.12642423481362   -0.87507407704618
H          -1.84357263278334    0.11982647243394   -0.29853792949528
N           1.77463626550591    0.26769302452858   -0.10880472774933
H           2.66083542483322   -0.20652863286031   -0.23805923537602
H           1.13544158911901    0.09583101451608   -0.96217564821892
H           1.28511192738009   -0.10770594702545    0.73336797254588
H           1.89794946143760    1.30608021747367    0.01350267432784
