    26
        -50.45545535  Gyration_radius:  2.54270823172 Dipole_moment: 9.239
 S           1.69362938330254    1.66352531402990   -0.49771396654284
O           1.55946394772037    2.23031192056226    0.81775119770282
O           2.14348708317992    2.51590483219564   -1.55013993224823
O           2.84163472945922    0.51675803945805   -0.37486276498428
O           0.49254042055678    0.87585498573267   -0.84121265014402
H           0.82914331636332    0.14036204313799    0.64692924913623
H           3.51552242129843    0.88530379587415   -0.93611819599498
O           0.97972583596813   -0.55740685681504    1.31905535024754
H           1.93550773008882   -0.58939494383841    1.40720185859561
O          -1.98588364482670    1.19419887109093    0.22906866156576
H          -1.17096971128437    1.16835209181723   -0.30127667733188
H          -1.67424139983463    1.48303223225433    1.11514419452161
O          -0.54542164817577    1.72666031188973    2.42577371566429
H          -0.24837675232761    0.85480158866520    2.70217544573738
H           0.20698114236429    2.09667046312341    1.92410585454444
O           0.38715892471597   -1.15443556010799   -2.43817612147169
H          -0.14756098045230   -0.89334680206384   -3.18967101565694
H           0.53793120323488   -0.32404962055204   -1.91754452593397
O          -2.85144143687615   -1.23506855344272    0.27660759777155
H          -3.57808239671392   -1.25505079084782   -0.34716285803173
H          -2.56701800313703   -0.26839065062205    0.32927205735400
N          -0.47026891927027   -2.24552680917387   -0.16130967248948
H          -1.47434616027923   -1.92427940101229    0.00110047317631
H          -0.17228124564505   -1.95783991738634   -1.12932230431440
H           0.13459529103225   -1.70252917621742    0.50927763779687
H          -0.37142913045528   -3.24441742774952   -0.01895261867386
