    26
        -50.45994678  Gyration_radius:  2.40526725402 Dipole_moment: 8.731
 S           0.74440308559096   -1.79764597807994    0.70112592954473
O          -0.43627719521375   -2.54083174975571    1.07378069151378
O           1.89164691866008   -2.55837514204083    0.30779307711301
O           0.28022881971444   -0.97114968896254   -0.62555543556871
O           1.05632295037548   -0.71668151519619    1.64619805791444
H           0.12559916620682    0.48237767758514    1.76596559820531
H          -0.53036712035218   -1.38535937179676   -0.91460648068893
O          -0.46584945145991    1.29826749477157    1.80119410910802
H          -0.10855940048910    1.84103470217327    2.50560073329166
O           3.04697300944887   -0.14154578049031    0.02574195367174
H           3.09708212687977   -1.08713966832055   -0.17706641469553
H           2.41764405244387   -0.14360146759837    0.77027577088574
O          -2.34030926837422   -0.75557841256983    1.21366805651184
H          -1.90260208601730   -0.02228565748668    1.66462561831245
H          -1.70406274403645   -1.50967463874376    1.25546479558320
O           1.74663395370384    1.01132237022194   -1.93652889636432
H           1.52038916615112    0.22230215919511   -2.43501352450213
H           2.31950013401933    0.67110421234535   -1.19316730583724
O          -2.40696838274483   -0.11558031832410   -1.29907379334216
H          -3.31224265390506   -0.06207180445913   -1.60721089380969
H          -2.45551990582520   -0.40157635974290   -0.33932907132012
N          -0.52375331654884    1.75983542532344   -0.84648203869926
H          -1.25865427117109    1.07746389767541   -1.14927551064702
H          -0.75917989230663    2.70484893545317   -1.13057361306551
H          -0.45784843097927    1.68465593672308    0.19754033495193
H           0.41577071623404    1.45588474209918   -1.27509175806901
