    26
        -50.45489343  Gyration_radius:  2.52238246862 Dipole_moment: 6.779
 S          -1.86627693579965   -1.20771926784271    0.28148543651915
O          -1.19707266362748   -1.71784688427260   -0.91310640303174
O          -2.70179077252071   -2.12805246066467    0.96642725207398
O          -0.84738428459740   -0.57826726379646    1.16720778643191
O          -2.72819783665793    0.02393215592617   -0.22493036731765
H          -2.36676409428501    0.24882694440033   -1.10065959214028
H           0.55466437476745   -1.45059631406310    0.74837542152571
O           1.45931131168632   -1.79285865443653    0.58251443741474
H           1.37139002553527   -2.74669414646955    0.56196436359362
O           1.87933974175943    2.35799790969000    1.47551838597984
H           2.82724764103690    2.44987471906770    1.37311703879460
H           1.73690728284028    1.57998924309732    2.07192549519253
O          -1.61674323055080    0.72847773820877   -2.60554066200048
H          -2.22917525257857    0.38282708686907   -3.25795312557484
H          -0.79408029759232    0.23235733629047   -2.71283391769532
O           0.87131910171981   -0.53749618579304   -1.86374529206974
H           1.61117671616048   -0.93638888874732   -1.38991640363239
H           0.09163864266385   -1.08348460468026   -1.55416124710382
O           1.39877769984460    0.06361863508136    2.71419663898098
H           1.80180021125223   -0.61031278474128    2.14769799211010
H           0.44859906690583   -0.07767155431252    2.60529154608557
N           0.05769094055798    1.39332811550284   -0.22539760095586
H          -0.39613916268074    0.67345198446030    0.42852359037418
H          -0.64838452024097    2.00482970461465   -0.62352024284837
H           0.77572700849820    1.92092724145094    0.32540145063287
H           0.50641929599889    0.80695020516851   -0.97788195137181
