    26
        -50.46772473  Gyration_radius:  2.50770227925 Dipole_moment: 4.088
 S          -1.81424134120388   -0.25252150572697    0.85986690054102
O          -1.87135884041206   -0.17887709215659   -0.59419702419605
O          -0.79756132635308   -1.17017696688652    1.32895319894152
O          -1.72134482731835    1.06915628078145    1.45521418135261
O          -3.20095729404932   -0.85688603124855    1.32538060674607
H          -3.79728857204941   -0.19052734093292    1.00357393533047
H          -0.29477217234135    1.75419402638570    1.38960682890315
O           0.60183740780542    2.18162026377644    1.31561516784875
H           0.66332506177403    2.79592430473661    2.04905037491849
O           2.09296437745499   -1.41610531663813   -0.93228995439015
H           1.49360160256528   -2.17987245807287   -0.80336369653811
H           2.18623274377719   -1.02422292497192   -0.03161953698081
O           0.50128250790734    2.74872286486136   -1.30623954356861
H          -0.38256454089807    3.11763138232980   -1.36053128758512
H           0.67445708730869    2.61607946144525   -0.35006901040893
O           1.78016260769828   -0.33494478791174    1.47480717341422
H           1.62351451325578    0.62002905155445    1.43438680008885
H           0.89527904787471   -0.72388458973177    1.59083305444586
O           0.03489595409732   -3.05253968822654   -0.34589671447014
H          -0.36208348779024   -2.37359721036639    0.24088295801261
H           0.12415191613561   -3.84099671127418    0.19170647665448
N           0.31826779819743    0.14212777755452   -2.00724259955848
H           0.52263390427564    1.15560158409092   -1.85983391786244
H           1.11751985085766   -0.47623070473141   -1.60882079875126
H          -0.56670780949840   -0.07026733131452   -1.46857007794747
H           0.17875384092422   -0.05943631732218   -2.99120349494503
