    26
        -50.46294833  Gyration_radius:  2.43467523807 Dipole_moment: 6.334
 S          -0.61908412706175    1.22912389710646   -0.38389712765700
O           0.42840436895099    2.34761735389841   -0.51379910121016
O          -0.98690741291036    1.11535161314102    1.01820496872631
O          -1.77726422439275    1.55968240480955   -1.21794500175961
O          -0.02741390409570   -0.02750090813907   -0.87230583880512
O           3.41080131210098    0.58677384147372    0.64086649673247
H           2.63278848285492    0.43484227495279    1.23018208194293
H           3.88114611432617    1.33118438721356    1.01876693039400
O           1.24977778961346    0.17531911642421    2.14688979121464
H           0.47085491951195    0.68197620463714    1.85037113995507
H           1.01259402411635   -0.75008509884396    1.98918373680882
O           0.32450844565828   -2.07025872379966    0.73183911042938
H           0.23827819609864   -1.31297517800383    0.10344275596273
H           1.07144770717343   -2.58926068499814    0.42989556150520
O          -2.24494508827689   -1.19124729289571    1.18515704150539
H          -1.47030535432614   -1.77105196626624    1.24895999910066
H          -1.88128447262632   -0.28440034944198    1.31551448592840
O           2.26032738441863    1.06602487358145   -1.71084778436050
H           1.20945922275544    1.98576994715407   -1.05414616206114
H           2.83524086840189    0.88061824778663   -0.93026942984722
H           1.59825064802835    0.35787119279939   -1.70727844360674
N          -2.75054731116346   -0.77784447833294   -1.32782471337987
H          -2.41216861851593    0.27311677506678   -1.36083804353476
H          -2.11433767988644   -1.32148462418610   -1.90399243152814
H          -2.62853236824628   -1.05506974148020   -0.28449812599659
H          -3.71108893269214   -0.87409310365129   -1.64163190636924
