    26
        -50.46826363  Gyration_radius:  2.41725050379 Dipole_moment: 3.572
 S           0.19275100177768   -0.87141740301904    1.62802248532870
O          -0.85415753589281   -1.85444607404609    1.77492210324405
O           0.98623287674587   -1.00733837182147    0.42948558895637
O          -0.31513319550973    0.49787007952342    1.76839771344364
O           1.18262807731659   -1.09708290013721    2.84693103631154
H           0.59782277284967   -1.44073956283968    3.51351394825290
H          -0.05390471647601    1.53973828040054    0.55038470046116
O          -0.03919645389367    2.13167189577254   -0.24413950592783
H          -0.82853207211343    2.67172275369086   -0.16326974249294
O           2.26225215556963   -0.88777348074255   -2.02824615298865
H           2.08046069044888   -1.52611118795635   -1.32785994580767
H           2.68114046413797   -0.14073248669580   -1.55178700797162
O          -2.80330545457942    0.73415070021187    0.89676384110776
H          -1.91382883589076    0.68323911725734    1.31160963018586
H          -3.41664220895643    0.39969413049028    1.55299259155069
O           2.64819393999380    1.02029293887731   -0.16261423849879
H           2.06249190508683    1.78175954260391   -0.20834199200761
H           2.12610920198212    0.31896166804105    0.27078822981163
O          -1.86333545330364   -1.29444095845753   -0.61905415753315
H          -1.45334737663736   -1.70291342323428    0.16773410898363
H          -2.41341500455882   -0.57565555751326   -0.24680379440042
N          -0.17893744123003    0.13128647089586   -2.05868706649558
H          -0.81852312082558   -0.54014949208472   -1.53063357421280
H          -0.55775576481659    0.34835931821299   -2.97397613094944
H          -0.09984071297657    0.98811147473964   -1.46188791155562
H           0.78977226175407   -0.30805749216616   -2.13424475679319
