    26
        -50.46457038  Gyration_radius:  2.43724769678 Dipole_moment: 2.712
 S           0.26203059952705    0.36289162246227    2.06880147093752
O           0.51129172378955    0.96421339690354    0.76319150637316
O           0.87939470309252    1.03178941194557    3.16788319426710
O          -1.32879221272241    0.54695612385393    2.29630804395759
O           0.48098559312634   -1.07779847342053    2.01673823724220
H           1.70003719938433   -1.28805358903572    0.93866925269404
H          -1.30023550716809    0.78774734962649    3.21540483070589
O           2.41414507108010   -1.23087171744960    0.26214941152463
H           2.99633725682932   -0.53199492457970    0.56618106839188
O          -1.66214580404205   -1.92127292903025    0.74117971775257
H          -2.34455430991344   -1.46321896949195    1.23556950114595
H          -0.82501361539033   -1.71931179753576    1.21008594525224
O          -1.70859739352336    1.46722119357453   -0.54615455071347
H          -0.90998299836257    1.28145464325048   -0.00062261379034
H          -2.43115233453667    1.53401101464275    0.07968466021981
O           1.05003068106176    2.10516288743709   -1.60187952021636
H           0.14720729629293    2.38852411100182   -1.77845292912006
H           1.06106879743374    1.90534185480069   -0.64923828646726
O          -1.41987595876657   -0.94999398253052   -1.73174132650559
H          -1.54518781167017   -1.47404599849333   -0.90967789810319
H          -1.67145465287269   -0.03983358479046   -1.47534142579167
N           1.14362180089393   -0.54725908483684   -1.99415582644245
H           0.09976240810793   -0.80799218985519   -1.92355537868590
H           1.56542195693097   -0.94911176543703   -2.82381327180591
H           1.19334370840582    0.50242206080105   -2.00172653785227
H           1.64231381301914   -0.87697667381698   -1.12548728496762
