    26
        -50.44253542  Gyration_radius:  2.59890218726 Dipole_moment: 4.831
 S           1.35185834222514   -0.61950155491285    1.61165165700894
O           0.89269141545828   -1.24492379407606    0.38629886730122
O           2.64935981497616   -0.05763025200702    1.58593267212679
O           0.29133339424160    0.45514865436375    1.99819788013218
O           1.21021866072959   -1.62840163660621    2.75797168416605
H           0.37141449822691   -2.17153466548735    2.62155891835368
H           0.37836220811434    1.20482717883658    1.30555360623738
O           0.43561245282229    2.16828281624081    0.16080975193974
H           0.30082530803061    3.07521449204460    0.44147477700234
O           1.92925177430743    0.37891548862805   -1.57204486135857
H           1.68312893648303   -0.34395721862815   -0.97599960812451
H           1.86084051562328    1.17823106791332   -1.03952652060476
O          -0.92065738123290   -2.96377579143377    2.18020746505156
H          -1.42759968477886   -2.32942279966506    1.62444909714502
H          -0.62965175606104   -3.66451123695322    1.59172261139115
O           0.03256646832427    0.58229066926879   -3.48420319193791
H           0.76225469315752    0.45647284503002   -2.83883039982649
H           0.44136105186312    0.57236689823624   -4.35000582262462
O          -1.72403054180923   -0.92960680393714    0.62230012098139
H          -1.66079980757085   -0.24404393787233    1.29572448900106
H          -0.80631072254564   -1.04880932341912    0.29954275270401
N          -1.57972315799368    1.43310222888077   -1.27721566919714
H          -1.96404854945173    0.58264736597393   -0.87640220138607
H          -1.16074828708218    1.17880140968245   -2.17120245288261
H          -2.34302312717030    2.07155746420607   -1.46054435122085
H          -0.37448650889103    1.90826043569180   -0.43742128137062
