    26
        -50.45730938  Gyration_radius:  2.49918439616 Dipole_moment: 4.612
 S           0.68986825684621   -0.86672729196541    1.87158658277045
O           1.25620995261722   -1.64505969253398    0.77177711468474
O           0.96117609227354   -1.35308613067267    3.17825718439881
O           1.36778080306584    0.57988312798947    1.70145000652725
O          -0.73998629041270   -0.59368431602825    1.61491331539275
H          -1.41682183474097   -1.53243223028591    0.44147031389259
H           1.93110700145522    0.47714807309502    0.91280672258494
O          -1.85099698575072   -1.96528015645869   -0.33376647888292
H          -2.16839398065245   -2.81078919877840   -0.01528539276139
O           2.73298146778069    0.52981267943217   -0.64673793776466
H           3.45351391693215   -0.08208347279461   -0.48077313720045
H           2.11684072534888    0.05732647198961   -1.22726678456595
O          -3.25522555671108    0.26489938557911   -1.07462241099183
H          -2.85416149739472   -0.61284755532033   -0.91274123688988
H          -4.02550607493708    0.31818729610671   -0.50750165331457
O           1.15569898183655    2.90346193027963    0.12214024984967
H           1.89737570206785    2.51038298946445   -0.35209461593956
H           1.24921507382102    2.60181684920447    1.03409115866936
O           0.56535996521214   -0.96163460256659   -1.58438773029242
H          -0.14327741937756   -1.54408889180102   -1.87314918421166
H           0.82645909826726   -1.32230688085561   -0.68274788180427
N          -0.75661415562634    1.04714433298492   -0.40070554812836
H          -0.78533743811681    0.52511719933814    0.52441970782822
H          -0.25272184656180    0.39347406064984   -1.04793244957661
H          -1.72938745987939    1.14851746829673   -0.73450012541827
H          -0.22515650745607    1.93284854561805   -0.29869977886169
