    26
        -50.46923791  Gyration_radius:  2.47946385987 Dipole_moment: 2.936
 S           1.02387746737300   -1.49570591325692   -1.35735473798057
O           0.66800829399909   -0.52087954630176   -2.37684282541470
O           2.37958135225123   -1.37027532157376   -0.88550193611417
O           0.03334203365226   -1.53706070516909   -0.28651777516628
O           0.92549482949335   -2.92304899273719   -2.05263045650444
H           1.71729489981127   -2.92529933058179   -2.57976912538099
H           0.50482335698053   -1.20482849160770    1.21911108129053
O           0.69517201807991   -0.93467817243308    2.15404099310142
H           0.82628849765233   -1.74840820185245    2.64250969748640
O           2.10074053964315    0.88602757840107    0.50809283146132
H           2.32259745310727    0.16491100613080   -0.10971623555755
H           1.89362099637784    0.43533581620827    1.33618265857360
O          -1.28506071725131    0.88245659331502    2.20874554861796
H          -1.50110027991947    1.13210467880457    3.10792759298889
H          -0.55397740361572    0.22824892960523    2.26203939364455
O          -0.02547353322498    2.48138226890967    0.29684111910398
H          -0.51888116451359    2.08920832013224    1.03671557539328
H           0.85141690204068    2.03442521427110    0.31583307611773
O          -2.40669685921930   -0.45363007203259    0.00677063206269
H          -2.24824358900623    0.01045700328286    0.84375598387300
H          -1.63784200961940   -1.04723883651042   -0.09823313470550
N          -1.17097599928272    1.18196350168278   -1.66386404695829
H          -1.61253570100021    1.68684483370525   -2.42306081222532
H          -0.42257513860243    0.52265036425537   -2.02758707048938
H          -0.70474691815519    1.83714701830363   -0.95834970129869
H          -1.85414932705136    0.58789047704974   -1.11913835591453
