    26
        -50.47044693  Gyration_radius:  2.4296899602 Dipole_moment: 3.761
 S           0.51575106354376   -1.27413293615772    1.71832609260611
O           0.33093105402365   -2.63631307010174    1.30460946676617
O           1.54370483379610   -0.57284220097938    0.95998450231589
O          -0.72214780162814   -0.49517083263227    1.74322675046886
O           1.02129158143561   -1.33140286021702    3.22530124305510
H           1.06854329909895   -2.27032945405276    3.37251883881353
H          -0.73059090545729    1.06349041922934    1.39751702414461
O          -0.83038204394083    2.01241038632139    1.11232666440964
H          -1.25990043634693    2.45839521720888    1.84345272936574
O           1.72193517340817    1.88463211264563   -0.10339768564783
H           0.94271029604259    2.24980217295649    0.33571663917574
H           1.85752212814896    1.02190438913495    0.33002627107314
O          -1.74330489716273   -1.34499332124830   -0.56640431854649
H          -0.91335849094564   -1.68937723902471   -0.94896640993515
H          -1.53181628788877   -1.20945137009509    0.37724371975635
O           0.84038066319771    0.89679619056517   -2.39748472582386
H           1.32495245811842    1.33988876317107   -1.65601619765556
H           1.00168674713895   -0.05057294840232   -2.27688514685795
O           0.86382673169857   -1.69126114142452   -1.30908134531545
H           1.18933189250473   -1.28755413624737   -0.47250251947156
H           1.05257424671596   -2.62745409785695   -1.21536235099916
N          -1.53540534831274    1.13339313049469   -1.36796659132927
H          -2.27006746908881    1.55092888719542   -1.92673286223712
H          -1.38410070873801    1.65230853186183   -0.48225174814628
H          -1.76009142208390    0.11942951427496   -1.09853741310695
H          -0.59397636728387    1.09747590338481   -1.89866062688001
