    26
        -50.45420600  Gyration_radius:  2.39516644905 Dipole_moment: 8.241
 S          -1.84072260450443   -0.17662003164977    0.93052087476100
O          -2.37255420987465   -0.78871062236866   -0.29610937904190
O          -2.45515290309922   -0.60006866973639    2.14362422487083
O          -0.31401376650547   -0.63750293363855    0.95193515372271
O          -1.72509477958948    1.27659172647453    0.78166840860396
H          -0.89767701413074    1.89444899499280   -0.37956012907432
H          -0.25382834107971   -1.60312804608598    0.82118501306412
O          -0.35550925872470    2.22279752741097   -1.15874368752035
H          -0.67995546225413    3.10474472491186   -1.34480788260056
O           1.84040526536828    1.21746626163007    0.30986407977738
H           1.23908805427834    1.73644653731936   -0.24421978769649
H           1.41817099153233    1.23282466764333    1.19403000804986
O           0.28085378342138    1.52071600785101    2.53446466967070
H          -0.51930739852130    1.53830140252939    1.97554153819085
H           0.14134529162529    0.79562661176769    3.14561251928955
O           1.90037015208802   -1.02923190758878   -0.97874512463347
H           1.87061127022916   -0.22418217032833   -0.37183437125577
H           2.73953792738926   -0.97352090273820   -1.43830363739188
O           0.57009106683029   -3.05542314605858    0.31868227262919
H           1.18600011952015   -2.48729162164834   -0.17711592247820
H           1.05216786960812   -3.39679383901397    1.07401693449708
N          -0.55320563692244   -0.32304913258388   -1.98983164566655
H           0.34068472889243   -0.73683252861922   -1.65474513109186
H          -0.77550946754666   -0.63247284243466   -2.92962015721852
H          -1.37146969527568   -0.58671021140918   -1.28562650016940
H          -0.46532602277591    0.71157415335878   -1.93188236129898
