    26
        -50.46931054  Gyration_radius:  2.42112492455 Dipole_moment: 6.648
 S          -0.40800019165359   -0.00573337923206   -1.48158340340320
O          -0.15920030883494    1.29379307326394   -0.85258487374196
O          -1.80736832602905   -0.30821383190890   -1.61553641067523
O           0.23029970504200    0.05031634518956   -2.90022385722138
O           0.30954941192432   -1.06094894447975   -0.74621975776127
H           1.63190583373609   -0.90391729542858    0.04479134386166
H           1.16466970184547    0.26083114784850   -2.69760049141338
O           2.47316618224246   -0.70571254135749    0.54927233173715
H           2.81154645729517   -1.55548532285172    0.83650557005174
O          -2.74723866594321    1.30921937113969    0.28987185120524
H          -2.57111650042203    0.67801208769202   -0.43638810231779
H          -2.23261656377428    2.08411316298125    0.05135600490630
O           2.75601711679022    0.34171565389764   -2.06173543716467
H           2.78910310055768    0.11316155814896   -1.11762841507586
H           3.28993826162639   -0.30881318688310   -2.52364925678978
O          -1.67980024724155   -2.12042235852430    0.66666905620434
H          -2.42995304259364   -1.96574897752229    0.08585585263517
H          -0.90514292889755   -1.86228516500271    0.13113902449379
O          -1.62225356015794   -0.03177872609655    2.32219690636463
H          -2.19396312541794    0.51856772701944    1.74117509040799
H          -1.65545557583088   -0.92032906030678    1.89745851144967
N           0.61450822745589    1.03207552848203    1.59278576140723
H          -0.26397685171483    0.54831188099356    2.02164206349272
H           0.84813666281186    1.88694672578906    2.08510539177404
H           1.42433922192222    0.39688481787741    1.53988474189612
H           0.33290599525006    1.23543970931764    0.57744048363784
