    26
        -50.46215445  Gyration_radius:  2.43444497877 Dipole_moment: 4.419
 S           0.72203181682228   -1.34741258931661   -0.06228686159850
O           1.37278533697044   -0.53359953581666   -1.09001260384415
O           0.54529192546122   -2.72475189887113   -0.44478509362086
O           1.60448241540368   -1.28665461778694    1.21168631692347
O          -0.57751849011628   -0.74176951547145    0.29769042526115
H          -1.12495458061469    0.68129013095970   -0.14349725014904
H           2.03921370243365   -0.38133368575170    1.19714702709113
O          -1.47448998875631    1.54039402097894   -0.50577336054741
H          -2.34239466891657    1.65676923077973   -0.11489248995534
O           2.57404976468670    1.09650953841006    1.29980732746801
H           1.76497190336033    1.67266915087543    1.34615676568671
H           3.07340822727241    1.26747071607070    2.10101414592864
O          -0.53290525829501    0.09340793127352    2.80860991502684
H          -0.62767631682331   -0.30904770455183    1.91965476966022
H           0.14909195025069   -0.42131622512337    3.24426528352095
O           0.29313676501441    2.37439393830690    1.58979602421366
H          -0.22137642429882    2.33740079635522    0.77141320411857
H          -0.08891110594483    1.68628908949139    2.17256456363990
O          -1.53815737850312   -2.27060502749633   -1.96665544301184
H          -0.73594041295825   -2.58273314919442   -1.47940287490441
H          -2.21440201627566   -2.20520928794629   -1.28798559060688
N          -0.54954157843444    0.10222937314441   -2.61516738112759
H          -1.07270752034366   -0.81188765663170   -2.51534858930355
H           0.37118631779656   -0.09353322945175   -2.05873331885681
H          -0.37207596017065    0.35001905180106   -3.58190661948406
H          -1.03659840497884    0.85101117502634   -2.09335832153228
