    26
        -50.44151839  Gyration_radius:  2.60969174024 Dipole_moment: 5.293
 S           2.09413849821943    0.30791854388525    1.91292766837449
O           1.52762544682007   -0.95473880928077    1.51111440079100
O           3.28955013496889    0.28299364446451    2.66891675650112
O           2.28705146685458    1.17074789033516    0.62439555285417
O           1.01883669226994    1.11446315441701    2.68677946940720
H           0.18745057727685    1.06954424350330    2.14453837616563
H           2.02346122651427    0.67249584257411   -0.19959714541853
O          -1.14012466270134    1.06843129610213    1.23869447000924
H          -1.74443360790068    1.72870342268951    1.58243064230281
O           0.35921485612514   -2.10602813159282   -0.57796735804643
H           0.88012357917759   -1.95810396478363    0.23208997890740
H          -0.55546217433578   -1.93155680434950   -0.28992917992067
O          -2.08835578883774   -0.73778340860068   -2.15972675345153
H          -1.39721590115423   -1.35185277054401   -2.42022420506002
H          -2.37617221483454   -1.02210383613522   -1.28256717543855
O           1.65588463629200   -0.07210038052038   -1.57247254281183
H           1.10728318341899   -0.85445634710778   -1.27746607178032
H           2.46873081795629   -0.43553347223343   -1.92830286068657
O          -2.03493705867259   -1.40394240750114    0.59366402360939
H          -2.10499948648087   -1.95650529521237    1.37361648881252
H          -1.72337308568563   -0.52644940947046    0.89997887020312
N          -0.73675879858117    1.62959621067440   -1.23357992738083
H          -1.31366030867548    0.94129330207377   -1.72261021853418
H          -0.97390755818565    2.55079289758773   -1.57683614226328
H          -0.93780492930952    1.33927604458467    0.25013108410485
H           0.22785446987773    1.43489852352777   -1.47799822104468
