    26
        -50.45901976  Gyration_radius:  2.38914836674 Dipole_moment: 6.116
 S          -1.36226448447586    0.62656301958134    1.44046204464173
O          -0.64618223985376    1.55838585441853    2.27708641508803
O          -2.77756009215438    0.53380879175926    1.62874655364715
O          -1.15170450967074    1.19429009088620   -0.07115131671632
O          -0.70376692391007   -0.68587161864253    1.36767996706895
H           0.88113433867932   -0.63844573487836    1.53328351897895
H          -1.21575409887375    2.14130176499408    0.00813667928495
O           1.87410676444536   -0.71024954922185    1.51153801764813
H           2.14224002475459   -0.91612312453095    2.40830675296939
O           1.12915684209545    1.63496124836346   -1.75918369592445
H           2.02703477276703    1.65495568629802   -2.09471999470654
H           1.20477249890363    1.81906970675203   -0.78449378272624
O          -2.41156910535833   -1.18216616163660   -0.54550486972786
H          -3.14370270162538   -0.60940369128883   -0.29747828576164
H          -1.83583856104401   -1.14116196793414    0.24608117540443
O           1.54262364006284    1.93793977081855    0.82421877419121
H           1.96780971922590    1.09053460322297    1.03099202337046
H           0.75607312836912    1.95139066519518    1.40849828484730
O           1.03876385378961   -2.40417716351241   -0.44251040811075
H           0.27575123188319   -2.67966193243924    0.07511623419339
H           1.56585220231045   -1.85570317567941    0.17070962526224
N          -0.23132691755659   -0.66005024402598   -2.01267740384282
H          -1.17300182827785   -0.67549348223456   -1.53991744304716
H          -0.31937580155505   -0.90556777393475   -2.99302927504376
H           0.21275664527894    0.29111414269167   -1.89894650576713
H           0.35397159179573   -1.37023972501975   -1.49124306524122
