    26
        -50.44514616  Gyration_radius:  2.69991319329 Dipole_moment: 6.293
 S           1.46321283672275   -2.04601011696353    1.76698993716936
O           1.63882153016630   -1.51760555107607    0.42823381704006
O           2.17167363034935   -3.22130830830915    2.09335313600875
O           1.86357759908098   -0.90407895493529    2.77193157676331
O          -0.03601433071154   -2.25360739766447    2.01975890513643
H          -0.56808499287412   -1.39861167316709    1.80538807460867
H           1.67347415947464   -0.03878337995398    2.38593608092176
O          -2.05841774501174   -0.55895005292420   -1.11977705567210
H          -2.52171943703945   -1.36944302578879   -1.33153581270099
O           1.15881115811337    1.00743464902461    0.89453270267412
H           1.46259301143700    0.16123149240915    0.50976703492740
H           1.06731805676535    1.61698765286771    0.13392145872576
O          -1.20630130697766   -0.10435086986873    1.38905558115555
H          -0.41497439771097    0.45913668226838    1.22699310895009
H          -1.59001407306781   -0.30288789137504    0.50630339534290
O           0.54715024057736    2.38105172922170   -1.34850342977608
H          -0.42567254133663    2.35138231951337   -1.19259077056770
H           0.76212203113292    3.29416057696001   -1.54234614469586
O          -2.05002173103382    2.14780605476219   -0.71786390369670
H          -2.18301961976249    2.14610317838359    0.23358100451254
H          -2.24608259969585    1.24295437609583   -1.01383973922391
N           0.38847500421089   -0.63271816602754   -2.04338265891976
H           0.62477357840551   -1.06618739564008   -2.92628712916976
H           0.70059671178974    0.33283723816370   -2.07593204790074
H          -1.13855468162085   -0.62180669777537   -1.54154654215792
H           0.91627790855171   -1.10473647807957   -1.31214056946196
