    26
        -50.44954290  Gyration_radius:  2.48694354914 Dipole_moment: 6.107
 S           0.55539421376176   -2.17914241935368   -1.08394698598425
O           0.18892169138613   -1.12899325911213   -2.01541467145269
O           1.39029349425451   -3.20409105823027   -1.58951745642351
O           1.22376030695106   -1.46103050713556    0.12971716378733
O          -0.70262752275644   -2.78827895102577   -0.45764549481254
H          -1.23501943693243   -2.04518602616819   -0.00235465137679
H           1.49404970351693   -0.53381889025132   -0.22148696622907
O           1.81999708962419    0.80776960163067   -0.79310970433231
H           1.66406328610816    0.57979805282090   -1.71487171941914
O          -1.95336102073994   -0.83672894328281    0.57158933031209
H          -2.08289449599028   -0.26573588161649   -0.21076652021710
H          -1.42442620780540   -0.31683430594981    1.21034983977864
O          -1.89998905401364    0.44268909900780   -1.81700271478085
H          -1.10040241238068   -0.11407226352600   -1.97350101526316
H          -2.53759116136135    0.18113612739060   -2.48316363478138
O          -0.55240498111090    0.69951157073383    2.33958973290176
H          -0.84107677193813    0.53939632036168    3.23938948231435
H           0.41848513445499    0.53040514688495    2.32592398952021
O           2.07511706308471    0.18897736128835    2.18322419792771
H           2.43969672322065    0.73576922441817    1.48012224242241
H           2.02002757951909   -0.70178111004530    1.81615943742719
N          -0.26214114289429    2.25854774125253   -0.16315794108121
H           1.04360612785951    1.41661306934143   -0.53451651588765
H          -0.98354567659193    1.92784390556180   -0.79622405790421
H          -0.53322062894084    1.99989075758761    0.77996506634466
H          -0.22471189028516    3.26734563741705   -0.21935042279268
