    26
        -50.45952861  Gyration_radius:  2.35565120293 Dipole_moment: 9.322
 S          -1.03185063535802    1.15491161124501    1.26574231356051
O          -1.43969198051366    0.07598532676962    0.34881263642949
O          -2.11870800531491    1.72450774645960    1.98504021801814
O           0.00681986687065    0.50224813482260    2.26534934377197
O          -0.20216323719315    2.12512056387488    0.52984022450987
H           1.05434142933445    1.27029138923072    0.31845794198801
H          -0.42128056896951   -0.34116448158831    2.52993754922222
O           1.87214337531498    0.73313225897527    0.08206403760702
H           2.59321891219896    1.17025238012974    0.53806844462817
O          -1.30062284831668    1.90314219637088   -1.81204200266690
H          -2.02115840198720    1.31690629336319   -1.55918525576773
H          -0.91854885438413    2.18577460172892   -0.94522589582936
O          -1.15859254332200   -1.83691212571527    2.18930877934454
H          -0.38422027084028   -2.20638461067992    1.73971552327432
H          -1.63412155661396   -1.33235132651861    1.50791024270007
O          -0.43275907420523   -1.75693632469233   -1.25275959493737
H           0.21347469623730   -2.15872329173630   -0.65619030709124
H          -0.93948239186991   -1.13580843418128   -0.67889056615387
O           1.36154290399165   -1.87942238029659    0.84704768402665
H           1.95801437025441   -2.11730037706146    1.55836008520080
H           1.49796937279435   -0.92523562301579    0.68108375536390
N           0.71529173622973    0.30812802944590   -2.33228684328268
H           1.39126996615732    0.55096160293091   -1.58500315072101
H           0.29052198417409   -0.63855447439063   -2.04985030653117
H          -0.09317406443680    1.00951032728479   -2.26398784697576
H           1.14176581961991    0.29792094722683   -3.25131700954724
