    26
        -50.44059831  Gyration_radius:  2.52651473516 Dipole_moment: 7.999
 S          -2.14969175430273   -1.38099243131228    0.12585532637485
O          -2.58818186773350   -0.00744974982904    0.08570444756745
O          -3.12234458578443   -2.38498038625320   -0.08392626372144
O          -0.95691548347279   -1.51461504076128   -0.86053327462467
O          -1.44896510683436   -1.65202726604492    1.48973360558837
H          -0.65582765701230   -1.07147094196324    1.59606085583676
H          -1.10209366849034   -0.76038696708037   -1.57079070824031
O           0.82829243559095   -0.34501463612020    1.83066821876695
H           1.14471049843974   -0.71715206712197    2.65607867258585
O           2.47004633168586    1.40399622986280    0.12551487303261
H           1.91454889359783    1.04497224062763    0.83045317743936
H           2.78671970669834    2.25813099841501    0.42527504846305
O          -0.89016291663325    1.81675888133975    1.06980930340456
H          -1.64572871743239    1.27440607665245    0.77364086588085
H          -0.31834863518473    1.21523948756095    1.55903584896071
O           0.23083401639134    2.15677750318165   -1.35737492123915
H           1.12079383923867    1.84454737834603   -1.13579889202879
H          -0.22833256714375    2.23689507635586   -0.49401929546765
O          -1.41801697996073    0.40675038040681   -2.37303652555514
H          -2.23228936693618    0.66741994324141   -1.92544210889997
H          -0.74552876821474    1.10261619658448   -2.11777629683228
N           1.87589050621380   -1.58918951223536   -0.18888668732921
H           2.39871957372173   -0.90050292537866   -0.71691890394022
H           1.02127739559245   -1.80054751488568   -0.69703738653821
H           2.42924970863732   -2.43298631080400   -0.12126669501964
H           1.28134515932918   -0.87119463278453    1.07497770553492
