    26
        -50.46288533  Gyration_radius:  2.5029827956 Dipole_moment: 5.053
 S           0.23236848778221    1.55835249111940   -1.76930367483343
O           0.98675923098515    2.02199264236889   -0.61418961431777
O          -0.03258299270048    2.54341613874630   -2.76635516880404
O           1.19392259975203    0.47464857358224   -2.49929062235414
O          -0.93069180064639    0.77202582748509   -1.34950366085022
H          -1.48550226755832    1.67842748151320    0.05338231580896
H           1.44468908345232    1.00440182121154   -3.24805883299156
O          -1.24328484747047    2.19413099759465    0.84551851823417
H          -0.38907260615557    2.57013820355305    0.57751485300351
O          -1.21358179973170   -1.75304676289482   -0.95957652523689
H          -1.88891902680342   -2.03721177973271   -1.57721817587863
H          -1.10263843478215   -0.77529533312932   -1.11312368089098
O           1.55502160535520   -1.76262531216812   -0.84539742624124
H           0.61136602052960   -1.98462565282586   -0.86111865415042
H           1.66666977503783   -1.12466942589921   -1.56172664607927
O          -1.37075229162492   -2.13785304771521    1.68710080142595
H          -1.41752865942081   -2.01458785837023    0.71349477214341
H          -0.79397148936687   -2.89079090161756    1.82934325347333
O           1.92079393141038    0.16218549325723    0.99858090338902
H           1.70812175423765    0.90922363260531    0.39266447233800
H           1.91560606457348   -0.63529360050108    0.42587627029242
N          -0.28454551570870    0.24109292466467    2.35735895870182
H          -0.78890236862780   -0.66034033093108    2.19979173193990
H          -0.19761634799532    0.44245944163913    3.34689423062867
H           0.68819775454947    0.17142863041045    1.88235488309325
H          -0.78392586904478    1.03241569604967    1.85498671815739
