    26
        -50.44612565  Gyration_radius:  2.52990419642 Dipole_moment: 5.121
 S          -2.34927605149362    0.03469456454606    0.16478373811329
O          -1.75134001565490    1.33991720494954    0.02520100431536
O          -3.24006517235046   -0.38085928466120   -0.85575361569193
O          -1.16886122018178   -1.00488099767030    0.26775510865752
O          -2.96411517775150   -0.09695646805015    1.55787064219957
H          -2.34674143181266    0.44582397186085    2.16205277182304
H          -0.80281206618897   -1.24587122624455   -0.64026279301327
O           2.36238182450748    0.79097419621517   -0.09866297485086
H           3.08386443528010    1.40863750107278   -0.21855390060798
O           0.84161124635657   -0.20104486737569    1.98981067094721
H           1.44162867588075    0.26618999654419    1.38466427136066
H           0.18943539837376   -0.64230103483972    1.42571709731214
O           0.00890824003301   -1.71183410319297   -1.89427142200429
H          -0.28834497572752   -2.57906796747809   -2.17665877985106
H           0.88469311024821   -1.83705764611843   -1.43754402861781
O           2.17558353800015   -1.88268785423104   -0.40785520303176
H           1.95096578233920   -2.15632047623071    0.48539627720216
H           2.40587358600324   -0.93325301129193   -0.33793551522454
O          -1.22332362308979    1.37297353827393    2.66760652024519
H          -0.39505600582164    0.84051702288306    2.65609629120873
H          -1.22241335525051    1.87129075687293    1.83736257593333
N           0.42921952969382    1.30094315381593   -1.80361588840259
H          -0.37911191650791    1.45296933072502   -1.19987317444321
H           0.25103039815627    0.44573650085754   -2.31854163928988
H           0.46144086133923    2.06241902967964   -2.46966229547839
H           1.64482439563798    1.03904817911100   -0.76512574882594
