    26
        -50.46573222  Gyration_radius:  2.49348988391 Dipole_moment: 3.964
 S           0.98572958127701   -0.61916422028322    1.88808440615650
O           0.31627884544178   -0.24952725262654    3.10067764728206
O           0.28677609632089   -1.63751068687196    1.10956669850046
O           1.35856843037796    0.51502726088652    1.04784997552789
O           2.38293295923449   -1.27435171023283    2.30461721365608
H           2.20553902635491   -1.68309416401667    3.14636978622024
H          -0.21183866125438    1.17419017680638    1.50725231427039
O          -1.10361007617726    1.56535949103113    1.51970280760683
H          -1.36095212197601    1.52631429349430    2.44449665568621
O           1.86461143505743   -1.32720292598112   -0.92152272551386
H           1.23728251006188   -1.65016182687955   -0.23243578469149
H           2.40301462493842   -0.69424965492534   -0.43360040754842
O          -2.15193154557048   -0.74744333873925    0.45957570530254
H          -1.35647798591144   -1.24880179389429    0.72198006009802
H          -1.99351258182175    0.15010423714683    0.80199768024214
O           0.49751977513994    2.32080975181417   -0.74673219145963
H           1.02449686318342    1.80998554773254   -0.10377815277730
H          -0.30837570185970    2.53528856612686   -0.26306244331786
O          -2.22236340469872   -0.64320308103485   -2.14186099647772
H          -2.24413125797420   -0.78372981067156   -1.15291148394480
H          -3.00200662817835   -0.12683080096150   -2.34977460197008
N           0.27718809970977    0.22109122987827   -2.36425235118086
H           0.32211773692221    1.12783227889386   -1.82177814271587
H           0.59817332389580    0.34973187970551   -3.31765622554968
H           0.90958559623776   -0.46970705576988   -1.85224329215435
H          -0.71461496874310   -0.14075643061613   -2.35056214123802
