    26
        -50.46995688  Gyration_radius:  2.40477717763 Dipole_moment: 4.976
 S          -1.09410701542783   -0.87362633279764   -0.49750663102166
O           0.35411122580598   -0.92297611339094   -0.66427701898018
O          -1.52412734337386   -1.76792757710278    0.56951181507673
O          -1.51933802801772    0.50700027031069   -0.22368713264909
O          -1.76510466540374   -1.33736891002101   -1.80218610738035
H          -1.28417968197088   -0.85186594268682   -2.53513613197340
H          -0.97809815060966    1.05712640224443    1.16145234730517
O          -0.55352748012161    1.34280643469039    2.01815865406034
H          -1.16761667067594    1.95761943738855    2.42228535669710
O          -0.11526076721772    2.04120881584698   -1.88745059417206
H          -0.72964933326579    1.60407567327665   -1.26280223698598
H           0.74438673773709    2.03183838416205   -1.44356578304122
O          -0.57965471538570    0.09142042732961   -3.59337775961624
H          -1.22205070756103    0.43483509354111   -4.21829682044522
H          -0.28762543209410    0.86538542954494   -3.04473239293023
O           2.39908463767694   -1.36935479893967    1.02275584954317
H           2.68038442199284   -0.44875558109298    0.90340609046853
H           1.86246777180388   -1.54537372037464    0.22890842334171
O           1.67781287466945    1.22264472856672    0.19333210629264
H           1.10158854380191    1.55325997627565    0.89203174945253
H           1.19220357414147    0.47473351426834   -0.21406609095780
N           0.16961843243521   -1.22274312312611    2.43004915682486
H           1.13466093621496   -1.33377892446283    1.98828715951268
H          -0.55052321993379   -1.57248112139268    1.70685923600947
H           0.09212021700093   -1.72777370335119    3.30625926464897
H          -0.03757614267292   -0.20992873594131    2.54378753079435
