    26
        -50.45999007  Gyration_radius:  2.65952942863 Dipole_moment: 3.357
 S           2.49514662940270    0.55598953946776    0.43870987380735
O           1.50585590182230    1.27304460599207   -0.34316768522636
O           3.85596267048682    0.74393283182085    0.04664460965602
O           2.38863450136485    1.16813375599681    1.93277619950960
O           2.08378375817281   -0.84723214811838    0.58854840940273
H           0.74917618107800   -0.42038640654992    1.36719424839069
H           3.30563181524305    1.35515852687239    2.10279439970583
O          -0.09749011674488   -0.09126106778195    1.75955361432427
H           0.17756758411525    0.62713444201056    2.33353391305003
O          -0.34296686278025    2.92399211662533   -1.21353433443299
H           0.44164447365165    2.48414640037612   -0.82285798611019
H          -0.05275601221629    3.27245147825236   -2.05781342513056
O          -1.30782626591668   -2.43321653760321    0.53945685785953
H          -0.94459175200781   -1.86461501762979    1.22926812103658
H          -0.65848440419798   -2.41204500004617   -0.17729748840345
O           0.54653369418929   -1.49697011457527   -1.40891204544020
H           1.09023054009192   -1.66903754061845   -2.17819817224147
H           1.17618513936657   -1.27832502777640   -0.67487651345607
O          -3.42829343349950   -1.11598767928293   -0.42699492834149
H          -4.15903188208425   -1.12586788196179    0.19173126530710
H          -2.76571669573134   -1.76254894302273   -0.08871018698431
N          -1.23738036486045    0.43687884070673   -0.64337730138795
H          -0.88112251647487    0.38395227366174    0.33961343022263
H          -1.13178756036333    1.41551563405298   -0.97483531380871
H          -0.60337992255509   -0.18572248322060   -1.17912768915276
H          -2.20552509951870    0.06288542235837   -0.68012186214278
