    26
        -50.46060891  Gyration_radius:  2.58723038191 Dipole_moment: 5.776
 S           0.49829277052537   -0.30347233024686   -0.38104923979392
O           0.26112909334323   -1.43445632470221   -1.25062516622054
O          -0.64151735514681    0.60103744611330   -0.28332750114859
O           0.80268334196332   -0.82394253190137    1.05327707592469
O           1.69103836652138    0.47199810458644   -0.77668011708993
O          -2.38812268095405   -1.31817857285057   -1.06307059898898
H          -1.49033306872400   -1.52922881606222   -1.37763613305180
H          -2.26637920796077   -0.43901267007202   -0.68116664707728
O          -2.43324615902733   -3.13058786619905    0.89643936653876
H          -2.98138052777013   -3.86659809296291    0.62035490818167
H          -2.53455034917485   -2.43646649543620    0.20249097770869
O           1.99659565993166    1.62442714531628    1.64332696539473
H           1.82288887420590    0.93961783320672    2.29382822366980
H           2.04471540174918    1.14804379913529    0.79328251926415
O          -0.17934936035109    2.93189938132944    0.81933330628169
H           0.58074164738989    2.65117264339792    1.37522029373994
H           0.51684816417097    3.09705296402699   -0.47732774802335
H          -0.59173163001943    2.07898011552562    0.54898125071878
O           0.23598941030598   -3.27141103395860    0.69885141966687
H           0.62104905937356   -1.81988702669771    1.04912986404355
H          -0.72640833005050   -3.32215176961498    0.90308524122960
H           0.29244856648549   -3.04559007314489   -0.24262028494470
N           1.08734779372972    2.89016019955805   -1.40281511490401
H           1.38498509510826    1.85831974523881   -1.25118649819330
H           1.90436657722628    3.48611705269714   -1.48897279975354
H           0.49189885714110    2.96215717373561   -2.22112354317029
