    26
        -50.47444115  Gyration_radius:  2.41403822707 Dipole_moment: 1.592
 S           0.93723049742623    1.06334676955806    1.36759177857508
O           0.66206362774976    2.07104971992271    0.34743650111864
O          -0.26046406286366    0.46405830194334    1.90505508539336
O           1.91196933434386    0.08664469992409    0.90396813025191
O           1.61937521698257    1.84333743191551    2.56374369752512
H           2.31148799450938    2.31921190571634    2.11781379083374
H           1.39537596315108   -1.34666757498595    0.36797358245353
O           1.08179387666769   -2.20876611300577   -0.00803378161629
H           1.77982022107364   -2.84221334630322    0.16419443560508
O          -1.94889457307341    1.90393934779059    0.30846509569792
H          -1.00105295294491    2.13727937137668    0.20280484293472
H          -1.98534566194660    1.56472473354669    1.21038306592618
O          -1.38152451634673   -1.82557897741776    1.12223970193116
H          -0.57818898164145   -2.24383482451930    0.76786998998763
H          -1.04419585129094   -1.04424836187321    1.60505634046590
O           0.09527578532121   -0.96562736602200   -2.27851199387576
H           0.46112577387003   -1.59522531911138   -1.63504804697999
H           0.72184439120439   -0.20490520006501   -2.26094078044338
O           1.86650938952330    0.94618118742187   -1.72611714377542
H           1.37856689691578    1.52859392859076   -1.11345858504331
H           2.43879420481002    0.43986183819044   -1.13938350592376
N          -2.11719316786314   -0.41556980989090   -0.97762761383030
H          -1.97686337138335   -1.06789537181718   -0.14694644377242
H          -1.27297405664319   -0.56572756063013   -1.61428174751318
H          -2.98324695730542   -0.61040451227092   -1.46670501017846
H          -2.11128902025224    0.56843510203930   -0.58754138572760
