    26
        -50.44056100  Gyration_radius:  2.48608057274 Dipole_moment: 6.073
 S           0.94724933191614   -1.66136115377759    1.23598452776835
O           1.28665134355527   -1.72981147917459   -0.15349621518479
O           1.29422274926446   -2.73950974474043    2.08240031223388
O           1.53543690519094   -0.32042075639891    1.80432415567749
O          -0.58533195688077   -1.41377228973926    1.37192295932254
H          -0.83782139009453   -0.52870465334898    0.95801117070282
H           1.84450590408040    0.24150026371481    1.02270203977568
O           0.10185084035753    1.33338559502634   -1.81010121749915
H          -0.07755326305880    1.90586248741907   -2.55620351548178
O           0.26320381578977    2.07590269683821    2.37800267013167
H           0.76681335896467    1.25080464247538    2.47262769498993
H          -0.06161942712597    2.30814758425732    3.24939401915076
O          -1.26519106819568    0.88993781455255    0.44639387788525
H          -0.86133304419682    1.47695381916123    1.11129920951039
H          -0.82500428207412    1.10028686486003   -0.40621436975588
O           2.08234144523481    1.41069131308167    0.00350959120509
H           1.46520855529687    1.32774301976215   -0.75465624039449
H           1.81168564017453    2.19684822652788    0.48811890406573
O          -2.65820919020626   -1.42250938216841   -0.72994260997058
H          -2.64644463889236   -0.51779838133822   -0.40105954001534
H          -2.28650560317926   -1.95833621970832   -0.02315603371299
N          -0.28569376767941   -1.12756498666877   -2.43215282489849
H          -0.02259017974603    0.36199065236496   -2.14080571854895
H          -0.13008776411006   -1.55371418088914   -3.33569519445156
H           0.36795684706542   -1.53793131889251   -1.76569767046685
H          -1.22374117146148   -1.36862042320539   -2.11551001203156
