    26
        -50.46670647  Gyration_radius:  2.50025110823 Dipole_moment: 3.080
 S          -0.83951348285327   -0.20890386987420    1.92127413566976
O          -2.14904587635124   -0.69163974597620    1.53868034114544
O           0.23014029901483   -1.04898735290771    1.40080788831029
O          -0.62563423208571    1.19471087066252    1.60333143437920
O          -0.77265594802033   -0.31037312364134    3.50087840577725
H          -1.20852193696892   -1.14316343753117    3.64623261489488
H           0.39001670718317    1.69418181796140    0.48695856607736
O           0.94141179978688    2.00089346884679   -0.28359144829852
H           1.13841941360434    2.92378608476548   -0.11734837232926
O           2.38625190998434   -1.74377045124389   -1.72672405593578
H           2.57449139073009   -1.13797891732936   -0.96544551410406
H           2.90593943643327   -2.53285844614476   -1.56924864429801
O          -2.75658546573461    1.21878759429839   -0.10987405968731
H          -2.30683458124197    1.85873627685243    0.45408904673208
H          -2.73901788913773    0.40317897549621    0.44468191795819
O           2.56796367585853   -0.17519955900182    0.39926052532871
H           2.25432779325435    0.69006553369462    0.10036767004872
H           1.81474119217812   -0.55014958759477    0.89569795973672
O          -0.20579309989176   -1.79943533327306   -1.10917248760470
H           0.72429192619171   -1.90105710539359   -1.42350925661754
H          -0.13569273803969   -1.66572554184635   -0.14005629418367
N          -0.83834774595449    0.59923413802840   -1.81963180559865
H          -0.99594087678104    0.73164650270978   -2.81219841783141
H          -0.60167134696953   -0.44503953932948   -1.59276233060931
H          -0.05570705140425    1.18369300622836   -1.47740498033239
H          -1.69703329276696    0.85536774152064   -1.24529283863443
