    26
        -50.45891244  Gyration_radius:  2.55106817482 Dipole_moment: 7.500
 S           0.63892897340491   -1.63588315416659    1.23089494531900
O           1.31928452057124   -1.15427670599743    0.01042108198854
O           1.48029894168088   -2.31631705773402    2.14598320184191
O          -0.11264008735422   -0.50135051251764    1.80746651740723
O          -0.46479868328614   -2.63930793318203    0.71564439056026
H          -1.06044172228783   -2.13039957832858    0.14143094212355
H           0.30464464748886    1.00098432105608    1.44647594660872
O           0.46249236543614    1.91719107761487    1.09597212272644
H           0.54080257826919    2.48714615452647    1.86139676075986
O           2.70274542911139    1.17013549409861   -0.43720146991837
H           2.08880469089226    1.65115817258305    0.13921728764316
H           2.51780894851405    0.23284545962127   -0.25791233419550
O          -2.70618581372904   -0.34422496706517    1.73248538228589
H          -2.93556821087296    0.51163414158619    2.09716854158440
H          -1.73823720287351   -0.46529962820854    1.89948003534310
O           1.62954834029711    1.39065686399255   -2.85787828122266
H           2.12304979816544    0.83811490507153   -3.46525073608015
H           2.16728020434204    1.42738247628077   -2.02603777661371
O          -2.34543366320321   -1.20335603015591   -0.71536284299617
H          -2.62706945047167   -0.84459771413563    0.16320337858669
H          -2.99645105380038   -1.86420897934223   -0.95642388951410
N          -0.23117076135423    0.50618203617157   -1.17523072209180
H           0.41064830711326   -0.23328406962930   -0.70307236683903
H          -1.13985252694801    0.07542711277591   -1.36094687966245
H          -0.30643934120529    1.28035904231999   -0.50686706034430
H           0.27795077216656    0.84328908275290   -2.02505617529581
