    26
        -50.46587295  Gyration_radius:  2.49704740442 Dipole_moment: 8.754
 S           0.21958688710123   -1.87441259085162    0.98870591229641
O          -0.16298569780362   -2.16874939747771   -0.39479216243007
O           1.59476390870079   -2.12461696814240    1.28677134445651
O          -0.13813586503689   -0.46469669315053    1.28916156914545
O          -0.68259650446607   -2.74743529416532    1.91794382775562
H          -1.57954048194836   -2.63762530225486    1.54126385448354
H           1.32016679326461    0.21274799721184    1.03772089272745
O           2.20968112688889    0.51407399921972    0.73305528840571
H           2.79889340266564   -0.14989617409058    1.10425778620843
O           1.49368907527038    2.98503819886483   -0.12094668518383
H           2.27222364752323    3.40208450534362   -0.49381175096477
H           1.80971636427539    2.18192269577767    0.33657036985669
O          -2.13195404458894    0.73129838069766    0.28150325819663
H          -2.43994173407207    1.33816420742725    0.95701144719437
H          -1.37554110085206    0.21943290413124    0.70808803323965
O           1.27356269608976   -0.42599634006102   -1.67242610077141
H           0.76227361802490   -1.19358496324681   -1.31476259364393
H           1.86773876718281   -0.16930980073891   -0.94327149338664
O          -2.70384998096145   -2.10383586760403    0.30112518287591
H          -2.88511510579376   -1.15632853228409    0.26545940225906
H          -1.90814744628168   -2.23213659824286   -0.24857338790488
N          -0.34235431876443    1.59298895586859   -1.53048544680873
H           0.26688075430953    2.28698333097702   -1.04245845644809
H          -1.12940215756779    1.31612691023549   -0.89252646429016
H          -0.69366055322468    1.95414412881558   -2.41019100933546
H           0.28404792006526    0.71361830773755   -1.68439261793749
