    26
        -50.46162177  Gyration_radius:  2.50187075689 Dipole_moment: 4.741
 S          -0.39127769525481   -1.81595817453598    1.09260399711072
O          -0.18961082991000   -1.79761677061956   -0.36938584178192
O           0.69789351074694   -2.41844336410911    1.79132587300423
O          -0.68481316830351   -0.45536014565345    1.56116935965451
O          -1.69755673237361   -2.66115899846450    1.33051165413128
H          -2.38318907556465   -2.25506202256304    0.79072131791003
H           0.90734658881914    0.00631140505101    1.87729461969095
O           1.87999348079059    0.13053867643133    1.85418425186216
H           2.21288086140101   -0.65806470959764    2.29380558940641
O          -1.34096613202961    1.82364113109959   -1.53134953142608
H          -1.19431990530538    2.16723567133308   -0.62971799575951
H          -1.88675638825578    1.02887398285985   -1.41217602102341
O          -0.70985879379369    2.22002778419182    1.08454805302600
H          -0.76997345180065    1.28724932355525    1.34965565746379
H           0.14580826411199    2.52732119173870    1.38919458804287
O           1.09260700063114    1.49140953268283   -2.41438255651103
H           1.00863024079293    1.29909487951279   -3.34927434976186
H           0.16380544290930    1.67050562245023   -2.09217089936921
O          -2.49634872228937   -0.52720766337943   -0.49245212499833
H          -1.67818201794719   -1.01358112977189   -0.70488842102769
H          -2.31686890629495   -0.10792767571857    0.35821864473821
N           1.95343971449100   -0.38503404623037   -0.76719329004059
H           2.09312868636207   -0.03725975654763    0.21676824813764
H           1.11915644630547   -1.04351573309710   -0.70344482797376
H           1.68931643267340    0.40406280361962   -1.42803466547745
H           2.77571512187492   -0.88008182478341   -1.09553131635311
