    26
        -50.46400260  Gyration_radius:  2.56990893516 Dipole_moment: 5.310
 S          -0.56790107998563    0.96535546456097    0.24190350315775
O          -1.61106536759208    2.06814769353023    0.53749818832513
O          -0.35547464498575    0.21483044846108    1.49771891111508
O          -1.08939225302863    0.09943101239521   -0.79760888743279
O           0.67166277706633    1.62630156310971   -0.14517566298681
O          -2.68536988915001   -0.75950265324521    2.33043422865018
H          -2.84672483908164   -0.34214124132397    3.17842447820264
H          -1.78621933204716   -0.48155251863106    2.05529127048912
O           2.30588222333956   -2.26429929463581   -0.34010324035022
H           1.81015984679753   -3.02090930940169   -0.02220622839753
H           1.78310509967944   -1.91148804756321   -1.12660868972772
O           0.81577090121411   -1.21030313921823   -2.16190184509708
H           0.03273120345472   -0.84492946795577   -1.70466255085432
H           1.27577403484571   -0.42312862237094   -2.51074441501196
O           1.71283885416333    1.31972484158243   -2.58600433722930
H           1.21767894534572    1.83537063457684   -3.22434801939656
H           1.33039008502169    1.53231779865521   -1.71077772501059
O          -3.58800116599308    0.49525140189929    0.12823937503822
H          -3.51505348130596   -0.05867674446478    0.93346160159678
H          -2.49773332392007    1.60879653262668    0.41404400499158
H          -2.99631271618865    0.07932569886295   -0.51715241746891
N           2.15857957326375   -0.11314104579751    1.12828176478057
H           2.07047991662102    0.68923281801436    0.47680542882502
H           2.87164593631195    0.03879899957411    1.83367187058491
H           1.16812969910164   -0.12377990432145    1.52217611660721
H           2.31441897703810   -1.01903289891910    0.56934327658667
