    26
        -50.45844863  Gyration_radius:  2.52200802277 Dipole_moment: 5.990
 S           1.38276255727944   -1.55154567392883    0.77572089824954
O           0.69673301009234   -2.30249032798200    1.79614186945892
O           2.60096337419213   -2.10026431823017    0.26865322793223
O           0.33155871192312   -1.58557636398741   -0.49403601941707
O           1.44355692767299   -0.11824138786854    1.06122718807544
H           0.49855014884432    1.05730010084666    1.64843623115664
H           0.04384757183564   -2.49329597783539   -0.51840821924211
O          -0.17310745787752    1.77012460311864    1.78298915201861
H           0.31447564051007    2.54368900436921    2.06899967861298
O           2.57002037851104    0.21987493479773   -1.29527135068394
H           2.23408299294577    0.23964596675842   -0.37987150143603
H           2.94260153230642   -0.66507038533403   -1.36156074557854
O          -1.52381432956326   -0.86159850272728    1.81661126431709
H          -1.24545199910514   -0.02467305341716    2.20136707392472
H          -0.74825842526778   -1.45802900239984    1.88129560243066
O           0.74396607808655    1.60716502356861   -2.68104663849710
H           1.49738698395028    1.16703478958553   -2.22507051299729
H           0.74225152278320    1.26772083416909   -3.57693334490701
O          -3.23507302819242   -0.26955371758589   -0.17128416554085
H          -2.69179487574252   -0.63401164525058    0.56139568540672
H          -4.10124650516435   -0.09682820952656    0.19877486463157
N          -0.87929070809610    0.88179091168833   -0.68691115868477
H          -1.89407879423948    0.68700990029561   -0.76097352464797
H          -0.44177698571699    1.31391660107951   -1.53141375821108
H          -0.69340780037840    1.44075343929009    0.17095588574979
H          -0.41545651158289   -0.03484753345786   -0.54978772212206
