    26
        -50.44658673  Gyration_radius:  2.53097010091 Dipole_moment: 9.471
 S          -0.31901574038106   -2.40982907900511    0.04625147027615
O          -0.73073220420400   -2.22927020026075    1.41997752755716
O          -0.23234890381153   -3.73993473893209   -0.45175864280613
O          -1.35254372763596   -1.60982668721800   -0.86930474385441
O           0.95903909516354   -1.64792313314089   -0.19409772033603
H           1.01861923389537   -0.70053073900798    1.10115873428106
H          -2.04983877411731   -1.24620981167115   -0.24025261563417
O           0.95626883637821   -0.07323990842736    1.86391580703690
H           0.59818176716755   -0.61732079498647    2.57082842575060
O           2.10572658710118    2.15782750980532    0.84025379055155
H           1.84739031723997    2.82452369559766    1.48060733577883
H           1.89665815029613    1.30054726950968    1.25457830114713
O          -1.11622006555226    1.46451967850890    0.96626040937121
H          -0.38243052584760    0.94763418302719    1.35441455284961
H          -0.81563113363090    1.74185838551813    0.09447860241756
O           0.58581234286520    2.18798234710201   -1.31947540785431
H           1.20838196771365    2.17411530608064   -0.54539993414096
H           0.74855790200982    3.01083980852405   -1.78240069703634
O          -2.81425733531971   -0.65245342756627    0.98530520600322
H          -2.26961084479720   -1.25028568876697    1.52779261783340
H          -2.39383143612785    0.22877272013868    1.05886386508898
N           0.52078674818647   -0.35066981816982   -2.28053011765442
H          -0.45378820770174   -0.64603344711570   -2.38003721349006
H           0.57081851601306    0.65950183749465   -2.03107296476760
H           0.84017405018975   -0.94968590869129   -1.37053777150824
H           1.07383338490078   -0.57490935835475   -3.09981880688217
