    26
        -50.47472230  Gyration_radius:  2.50613461941 Dipole_moment: 3.302
 S           0.09562646358617   -1.08959860927708    0.28204115809944
O           0.14223483709899   -0.48190249712484    1.60304037407091
O           0.36437799692389   -2.59856285705742    0.45259886906470
O          -1.22668915090391   -0.92450518043911   -0.33197729151784
O           1.13433012383869   -0.52806367989568   -0.58044078719977
O           1.10295092808270   -1.70937718006634   -2.94397744357455
H           1.99188613854703   -2.02430024529777   -3.11576393040214
H           1.15246156184191   -1.19248139239473   -2.11006576041268
O           1.55386367435406    1.72318030163689    2.01563103662203
H           1.11763894137717    0.85072134249974    1.88638629853818
H           2.46371624476893    1.53140500187492    2.24620099785628
O          -1.34135658763981    1.53128482880662    2.58920896704288
H          -0.95907034780418    0.64459596705141    2.43933626727381
H          -0.58911286377444    2.07612443980710    2.84451887717602
O           0.90146613873586    2.11738816018462   -0.58950991190628
H           1.09994595607733    1.17203449649386   -0.76142421959587
H           1.25139568620970    2.26450406923566    0.30987792384238
O          -0.79358448434676   -3.17703247555431   -1.75373461995588
H          -1.38209584759232   -2.44419962282494   -1.52104928531935
H          -0.15131987758617   -2.79494987869302   -2.38953299469059
H          -0.03883554551632   -3.00411537588523   -0.37303057998418
N          -1.60838276784824    1.63611917137560   -0.05260504103690
H          -0.64573959516247    1.99050071123432   -0.36427587323360
H          -1.67348087744588    1.75158240425450    0.99356747412944
H          -2.37116945858743    2.09052792711826   -0.54214741256507
H          -1.59105730725060    0.58912017292170   -0.23287309232337
