    26
        -50.46072708  Gyration_radius:  2.44906912584 Dipole_moment: 6.370
 S          -0.66673598091469   -1.43889877499219    0.99853140005479
O          -0.47757617477808   -1.70176589094774   -0.43825536645056
O           0.20354895159792   -2.21700306641957    1.83095300739748
O          -0.46101402217619    0.01213474255690    1.23592310099292
O          -2.13896198535898   -1.76444235409321    1.33554559666679
H          -2.69362365381578   -1.47662035268724    0.55664025675161
H           1.16146005789571   -0.14704824465415    1.63510105992308
O           2.13390650475196   -0.30200589252586    1.63074043838208
H           2.21026204271324   -1.13882351801650    2.10075685610090
O           0.98103483019489    2.31622117091079    0.80660152406772
H           1.76380761752611    2.00892857945915    1.27301079388644
H           0.27608301480810    1.69982566534664    1.06555719001754
O          -1.65961334160305    1.04987640663341   -0.89707771935439
H          -0.93844030880844    1.13364193960625   -1.52961076895554
H          -1.24992613500479    0.70129490365965   -0.07906170766386
O           1.07396182667610    1.72905341755655   -1.77410728791870
H           1.29636005765903    2.49192039851883   -2.30849308270078
H           1.01190084291723    2.04955752520726   -0.83766520577003
O          -3.54459929613302   -0.79610260117677   -0.63037456362506
H          -2.88401881959602   -0.12758617769254   -0.92519149928525
H          -4.27049579151546   -0.30070023723323   -0.24421483915571
N           1.80974024928674   -0.75779045800806   -0.98432404860749
H           1.65423203794872    0.15026962172854   -1.46047887412454
H           2.42613045186978   -1.36196165806107   -1.51550388328464
H           2.16134594325656   -0.58617761675303   -0.00810890196251
H           0.82123108051624   -1.22579753785144   -0.83689350532222
