    26
        -50.46881782  Gyration_radius:  2.42401077807 Dipole_moment: 4.448
 S           1.51711282031795   -0.49781720212875    1.05258818777371
O           1.22340262408347    0.74333753656632    0.37289996685611
O           2.30611445531922   -1.41908287537241    0.26339511162979
O           2.39983661525392   -0.10583957114073    2.31148955687072
O           0.31740813467381   -1.13912107405176    1.59094681033960
H          -0.85551207572844   -1.43040762449621    0.55904440357104
H           2.75933224202670   -0.94149571488899    2.59075806699309
O          -1.58954724301524   -1.59598386523687   -0.09076804798939
H          -1.88187278321441   -2.49380549266454    0.07342991241183
O          -0.52204597165909    1.19252013577959    2.55716755187345
H           0.17597024253523    1.73287208915859    2.17793252728045
H          -0.25193952736381    0.27710205975051    2.36561458509009
O          -2.48927769761744    1.05613387171527    0.69175848447288
H          -1.94245663928481    1.19254140258134    1.49308056081257
H          -2.43368319802474    0.11163200880461    0.49960336856563
O           2.00997757845937   -0.47381884209445   -2.14165450487140
H           2.18314811758562   -0.93618756554514   -1.28562311293170
H           2.28133968685065    0.43347505229082   -1.97832896048070
O          -0.72235730624151    1.98646815381018   -1.02891304679232
H           0.06017925391330    1.75970726327595   -0.49406511019525
H          -1.48899616052302    1.82265720939059   -0.42140677169148
N          -0.62651404914621   -0.27391224619096   -2.26221540221462
H           0.41971070753841   -0.44531844900817   -2.30588926002015
H          -1.06479085234007   -0.38524759570127   -3.16913693096640
H          -1.04586256564867   -0.90816486144830   -1.55479055273904
H          -0.73867639875160    0.73775621684344   -1.86691739364944
