    26
        -50.46562446  Gyration_radius:  2.71874343572 Dipole_moment: 4.142
 S           1.05341252740064    2.27763392720000    0.31964948506177
O           0.02701977634907    2.23192722916428   -0.71805113308016
O           0.51366899371487    2.23667576287118    1.65831430399918
O           2.08165210222763    1.26767592157074    0.08646602054029
O           1.76716454303759    3.68690167478037    0.17445315978807
H           2.08392316129746    3.69986469215611   -0.72360464586858
H           1.48544549009566   -0.00323988166028   -1.24811113176895
O           0.59698858534936   -0.11849500510024   -1.61979265068622
H           0.22610971476136    0.78889532504694   -1.50416041056123
O          -0.66510843164481   -2.44359792222629   -2.45956697811865
H          -0.24945336728187   -1.57753527750102   -2.31109179285421
H          -0.02465245254475   -2.97173033505730   -2.93853620906426
O           1.52692860647537   -0.26960288246568    2.17747340388985
H           1.92576088000998    0.21671924155113    1.42548741147448
H           1.21044292205638    0.43678105225940    2.75080643665621
O          -1.71604929000244   -3.27251581219768   -0.09343267097505
H          -2.65421615295124   -3.43899923033640   -0.19303666013914
H          -1.36958180317867   -3.09142703899982   -0.99129278451952
O          -1.89651540718207    1.36817039188417    1.06594160133094
H          -1.11422114971676    1.77747683854842    1.49415397076655
H          -1.88542092784280    1.76113254414367    0.18562262992594
N          -0.59801165255033   -0.93373381126461    0.70577215010074
H           0.18477735699199   -0.88239160716257    1.40543717780967
H          -1.06188336964366   -1.86065195626490    0.66730885907877
H          -1.27046988761004   -0.14990945922225    0.91204478000808
H          -0.17771072753157   -0.73602439143514   -0.22825432280416
