    26
        -50.46637088  Gyration_radius:  2.5858864257 Dipole_moment: 2.421
 S          -0.21054693858423   -1.95582735576926    0.94736756230528
O          -0.30000298965886   -1.96706831303572   -0.50453357803054
O           1.12210861828540   -1.71258837503270    1.44250686561454
O          -1.19394846449833   -1.04260253327910    1.52800606246754
O          -0.61495076642731   -3.41610714930214    1.41525345378304
H          -1.34847057892502   -3.63940920727977    0.84935948537859
H          -0.25045981683576    0.32177968401735    1.72746594071473
O           0.41924941557939    1.03554430765928    1.63313577907411
H           1.17103368118142    0.73521275226143    2.15018548376845
O           3.15402537217587   -1.10210356965474   -0.17878645339424
H           2.49561740921308   -1.37409001835109    0.49582220127915
H           3.57276596639993   -1.90907234441960   -0.48013306164640
O          -2.60227265669918    0.38441777671763   -0.21130206890668
H          -3.48930520758553    0.42061202928165    0.15012211139054
H          -2.09119460713492   -0.20209315021709    0.38623847848685
O          -0.00602489043392    2.25656159925306   -2.45520269285667
H          -0.43020073028652    2.60672395094552   -1.63239559467106
H          -0.72676846136305    2.04662481555052   -3.05125196177338
O          -1.17630215809812    2.68508896584689   -0.11611106281187
H          -0.60349446074696    2.49786333803193    0.63547252078256
H          -1.77640480400312    1.91303806224808   -0.17720592609003
N           0.98337827535650    0.29459534909351   -0.93675706219637
H           0.71562246662156    0.98578371674965   -1.67975609927851
H           0.39349411960748   -0.57317008457329   -0.96393299069050
H           1.96865529679791   -0.01529072877539   -0.97419928213191
H           0.82439691004596    0.72557647200312    0.00063187944749
