    26
        -50.46858287  Gyration_radius:  2.51207354415 Dipole_moment: 4.688
 S          -0.91211366865125   -0.70378354132158   -0.28583546555777
O          -1.40736884531844    0.51128867018766    0.38071717168429
O          -0.48280890675552   -0.41971137910982   -1.63366009204787
O           0.16972067684106   -1.29514509519462    0.51748434403779
O          -2.06398134893887   -1.72649297910005   -0.36184532704213
H          -2.33955072964158   -1.96713289033329    0.56530464330101
H           1.47808037853990   -0.37048747264536    0.54020305818555
O           2.20756760571917    0.30481163670157    0.57248932485618
H           2.67673190601267    0.14752060794235    1.39364696939766
O           2.16032608546500   -0.21181623214199   -2.24821144081806
H           2.55179052849528   -0.10302865129895   -1.37433846321266
H           1.26699777753966   -0.56409940518700   -2.08548135650611
O          -0.83107360523800   -0.53140546386281    2.82925888753895
H          -1.28664551445574    0.21152043117957    2.41368524794217
H          -0.29136867225478   -0.89510429487213    2.09699119506141
O           0.54648122451325    1.81585721275406   -2.89338478440243
H          -0.18578558635542    1.18345079406653   -2.90700362830681
H           1.33704050387336    1.23189425843873   -2.90674363616586
O          -2.58837532939108   -2.37544073876553    2.10612673580135
H          -2.20493369477020   -3.23875634048726    2.27458026723441
H          -2.01929827857711   -1.71771287466410    2.57611745851976
N           0.45077616822917    2.17564308358732   -0.30267627745584
H           1.27636038322804    1.66966233709982    0.07535298905363
H           0.49918358119659    2.15236397966326   -1.37883966155283
H          -0.40140042891212    1.59241701584394   -0.01758807548421
H           0.39364779962047    3.12368733154195    0.05364990592334
