    26
        -50.47163208  Gyration_radius:  2.39560986879 Dipole_moment: 7.832
 S           0.90260758261196   -1.06128572179025    1.13801164791661
O           0.90878984943912   -1.37990695784559   -0.28535229528922
O           2.10006134140161   -0.42527017634242    1.59570607167983
O          -0.30582307401973   -0.27234616676111    1.46354946792232
O           0.73562880911878   -2.41926988389369    1.90780020903720
H          -0.12392717296501   -2.73741821325414    1.60337551603728
H          -0.43497614323147    1.25298695381442    1.04776552345508
O          -0.54536988466073    2.18453724224215    0.71658597180762
H          -1.00314741273560    2.66133788242940    1.41014384926807
O           2.26648460767940    1.91808573850196    0.29281692443250
H           1.39883976832105    2.27660107622829    0.52087930590972
H           2.37550004034691    1.11989385932276    0.84543385857347
O          -1.46981589360985   -1.32185520779131   -1.40404269001473
H          -2.02134206291020   -1.69569266311567   -0.70664730067504
H          -0.54997986163236   -1.47415817988508   -1.08713186650342
O           1.71511720424404    0.57932680139389   -1.91373156877449
H           1.60461438856583   -0.27436085071456   -1.44888586842981
H           2.10685761454691    1.17230635362743   -1.22647868088102
O          -1.93145424215742   -2.24389937097169    1.21531178563566
H          -2.50680333015941   -2.34987758906222    1.97494856124270
H          -1.43998291949231   -1.39626548847445    1.34452662595291
N          -0.78547962669007    1.20113176626281   -1.81574808406946
H          -1.19221976886438    1.70349534111554   -2.59607119484834
H           0.28170946971650    0.99726248572026   -1.97242848187239
H          -0.85687307031768    1.73478492277376   -0.93229646710035
H          -1.22901618262069    0.24985605649634   -1.68804083040893
