    26
        -50.46212980  Gyration_radius:  2.45805767626 Dipole_moment: 3.060
 S           1.58494937668768   -0.28891213771645    1.66807332177411
O           2.13130843452723    0.80101041707015    0.86595508908723
O           1.57946025086899   -0.07658711614635    3.07294884085105
O           0.22435727108098   -0.61303805920554    1.15099232701230
O           2.45042362920988   -1.56225010706685    1.33586008061315
H           2.46691688044002   -1.57498043065060    0.37384606117078
H          -0.83257119893372    0.59783386515768    1.28699233332094
O          -1.43904502656779    1.38031165075231    1.24687478474159
H          -1.60926226287759    1.62656519975181    2.15705677836265
O          -2.27916277825226   -0.07549528253024   -1.12459092302823
H          -2.25797891408618    0.47592260166504   -0.33286970615482
H          -2.08507934701120   -0.98036109634733   -0.82346574345333
O           1.15641583877787   -1.35974143096321   -1.17467604383991
H           0.76178065872005   -1.00231441772705   -0.35033313784541
H           0.66163361059997   -2.16326048352956   -1.36195025234184
O          -1.42419539248550   -2.43060614199566    0.07689135124370
H          -1.97205543858312   -2.92601498422843    0.68668035653771
H          -0.83674036028366   -1.87136548057259    0.61921819644736
O          -0.11045471649474    0.67701779484573   -2.48765124525086
H          -1.00426426400326    0.40077024568541   -2.17574040486731
H           0.47580814010971   -0.07062205231861   -2.26506776336056
N           0.47087533109095    2.24099308630978   -0.49560851442019
H          -0.37125106111146    2.21891821112876    0.10521479256556
H           0.25869341918293    1.68917056916027   -1.40255570489190
H           0.77395620816390    3.18841918476890   -0.68951846466660
H           1.22548172122999    1.69861638470594    0.03742360038665
