    26
        -50.46044993  Gyration_radius:  2.46232397266 Dipole_moment: 6.287
 S          -0.81330095870397    0.55171355411606    1.98807336752014
O          -1.00084175437687    1.89129145979426    2.46303337559101
O          -1.24384164164574   -0.51834426246399    2.83849410669494
O          -1.77833511656185    0.46608718299603    0.66037298131957
O           0.51271782987919    0.29087517333163    1.40597389190391
H           0.26911969011972   -1.38172087538868    1.48121742033555
H          -2.54347196742744    0.95612126545629    0.94450697874232
O           0.17986595209795   -2.34785713812797    1.34546613634373
H          -0.35196983617342   -2.62497095049797    2.09645868127040
O           2.34160560789740   -0.98450868805863   -0.10438323419637
H           1.89997631450653   -0.36368010557968    0.50240369536539
H           2.15719839808689   -1.85178497438830    0.27296829833744
O           0.38576864154218    2.64989497838552    0.26749235851408
H           0.59102741448980    1.78114744779664    0.66427153637664
H          -0.22700068894119    3.02270605224904    0.91216563414314
O           0.00314152800761    1.96254042078527   -2.23777730950025
H           0.58702350894288    2.56196250463433   -2.70563331565703
H           0.03521954240392    2.25375309532837   -1.29035046034020
O          -1.35152370345187   -1.82624733415505   -0.78206311905492
H          -1.74920626029240   -1.04600021184207   -0.36445572179313
H          -0.82996925438251   -2.24013541115350   -0.05713243284617
N           0.59465611268729   -0.64157034775277   -2.08452750981765
H           0.35884227062618    0.38163594869828   -2.18230937099800
H           0.83736840497831   -1.04025864498965   -2.98477416773662
H           1.38480479021888   -0.75541731017048   -1.39031379706498
H          -0.24887481533138   -1.14723282939280   -1.65917803388665
