    26
        -50.45643448  Gyration_radius:  2.50606918064 Dipole_moment: 9.714
 S          -1.28564756930250   -1.55137398232788   -1.33589451990919
O           0.02040810018740   -0.91688109607141   -1.66153975687825
O          -1.57836467514558   -2.67356219280570   -2.15719377822316
O          -1.11006134133987   -2.03887383061190    0.17412012901176
O          -2.31653496668464   -0.52468904919613   -1.25762779028571
H          -2.23764966332489    0.71582303760068   -0.38347475092794
H          -0.21051770861365   -2.45164386194055    0.15697281756157
O          -2.09422786289112    1.57559836406817    0.13341295566190
H          -2.95422708439538    1.99573680280153    0.17335910327918
O          -0.75916871016667   -0.01862891376401    1.94377909944189
H          -1.21810648448537    0.70547847423921    1.48812274384077
H          -1.04273961783322   -0.82161620341088    1.46956760716810
O           1.82503514769333   -0.34016556116331    1.66005534470698
H           0.84719367818528   -0.20283622566657    1.79750970624379
H           2.17657833530391   -0.62154123907576    2.50605275467619
O           2.24659512509652    1.98279265564240    0.38650311679911
H           2.24360177021283    1.09965970476969    0.81470423763075
H           2.16874985743482    2.62644181528475    1.09277159445877
O           1.42719390055439   -2.50948553298382   -0.08598920700559
H           1.23348058206583   -2.05116765694998   -0.92111833085307
H           1.75729097387176   -1.81791003265260    0.51206554733711
N           0.17869843048589    1.59761690304252   -1.30848267500591
H          -0.68952446821035    1.84112223903004   -0.79309964041199
H           1.01832272574278    1.80132918022413   -0.71888776036488
H           0.12429856291868    0.51369670497628   -1.48978275669611
H           0.22932294264281    2.08507948693329   -2.19590579126157
