    26
        -50.46129550  Gyration_radius:  2.41032453044 Dipole_moment: 6.577
 S           1.85717420661902   -0.98100728179251    0.37686354533421
O           1.38861029397364   -0.73584791397034   -0.99210724413082
O           2.58044036960397   -2.19068799208271    0.55465791287900
O           2.78029203691677    0.24437113347910    0.72965147923322
O           0.69640252348532   -0.85996553668780    1.29494655332678
H           0.20940929452687    0.50309366093583    1.82240739190483
H           2.28681870971153    0.97966127308449    0.32329575197617
O          -0.13631208140812    1.41356215238057    2.07313193333502
H           0.09179888342165    1.53605952799109    2.99541203978042
O           1.20564821777801    2.27946771682855   -0.07844099160723
H           0.63480858527130    2.12872369744685    0.70494813272536
H           1.68049952684662    3.09742361989407    0.07898923151007
O          -2.25990955264850    0.73561747076590    0.45203743095753
H          -1.69027986395129    1.07154213087167    1.16296424174236
H          -2.24513770561800   -0.23381929488287    0.53596494829716
O          -0.87076868394758   -1.89917918990608   -2.28608609153037
H          -1.25195581559102   -2.09020805979400   -1.41144505451533
H           0.08435338026858   -1.88517799318304   -2.13230989616553
O          -1.49183699588933   -1.91915375590174    0.41329352666122
H          -1.64976282117767   -2.72120178589622    0.91293414125805
H          -0.61908438038804   -1.56760530411316    0.73503701271090
N          -0.66983087311109    0.65854146247742   -1.66810711285250
H          -1.01521658415570   -0.16640710779987   -2.21070811042794
H          -0.52694970089495    1.48682633017919   -2.23314154107077
H          -1.33072614274010    0.83157761005915   -0.85903987832758
H           0.26151518309637    0.28379343961630   -1.29514935300363
