    26
        -50.46587164  Gyration_radius:  2.49417554494 Dipole_moment: 3.132
 S          -0.83053855648321    0.77833934719003   -1.62512623132164
O          -1.57612675093290   -0.06904337071552   -0.67349493148032
O          -1.07864402050284    2.17035121227834   -1.40427212614615
O           0.60806518250695    0.46721039536999   -1.53021454976817
O          -1.27995519614761    0.36040474119446   -3.05567421951826
H          -1.19784320647835   -0.61892184019342   -3.04499010843758
H           1.05419728675301    1.48063464383138   -0.36283781783664
O           1.19663856727489    2.05790445786202    0.43000726768935
H           1.13179127351519    2.95223380321372    0.08747067409712
O          -0.26110609505885   -0.70537564523810    3.15098669836366
H           0.61891548371404   -0.72255135085156    2.69467392134497
H          -0.64690204520734   -1.57225272054975    3.01311514353484
O           1.44332011869001   -1.87147212440110   -0.83029445402529
H           2.27991560931466   -2.01970364086333   -1.27507171139923
H           1.12621147146553   -0.98099257311646   -1.13237945002208
O           1.86207511981414   -0.59959394228636    1.58744062894538
H           1.93256968748643    0.30817952424653    1.27285522594687
H           1.71560346495781   -1.15359234069567    0.79675738540757
O          -1.02595404797807   -2.15207027060797   -2.23210697296151
H          -0.15107864592505   -2.38790254476337   -1.89055100590599
H          -1.45043409049506   -1.67357350849408   -1.50081160721219
N          -1.11174010009737    1.20731776552622    1.52925644398851
H          -0.22301720824647    1.68135108746240    1.23275589710086
H          -1.43864572256262    0.68003990905159    0.65938420215324
H          -0.88825152101423    0.49923664507819    2.28393976431494
H          -1.80906606825373    1.88384233054667    1.81918192321607
