    26
        -50.44304268  Gyration_radius:  2.57193739177 Dipole_moment: 8.079
 S           1.28956822935743   -1.22848394309794    2.25431728616475
O           1.05693721528498   -2.37155641666132    1.41524025410926
O           2.09057095466499   -1.37784807103486    3.40801579897988
O           1.81241880119377   -0.06063754613322    1.37223923967568
O          -0.10806478943292   -0.67130221476950    2.71178398790271
H          -0.67642354847046   -0.50075587166722    1.92960995015746
H           1.78870984626966   -0.30633976966581    0.36988998564030
O          -1.69261111070190    0.14650274580864    0.70605846014529
H          -2.45905312775157    0.43970919895002    1.20182043269004
O           1.58773744919389   -0.55173268222209   -1.08865523473840
H           1.26547593745655    0.25876293559709   -1.53075783466719
H           0.84409216008440   -1.19113714172928   -1.09946055942924
O          -1.80289191865384    0.02270360485366   -2.13214147933773
H          -1.51514270162165   -0.89106676771969   -2.23672441819981
H          -1.97153122932966    0.12781612594156   -1.18270267853829
O           0.37194983327799    1.54986133584890   -2.34457802537314
H           0.61226613329572    1.73695927427251   -3.25289110427675
H          -0.48692240749776    1.06409749472434   -2.37146084308850
O          -0.57331477541026   -2.12355058156399   -0.64241848313319
H          -1.18759648032810   -1.58191363988842   -0.13220642759569
H           0.01152066459141   -2.51937791941063    0.03313830137542
N          -0.01032384307664    2.10336237545089    0.52506518458280
H          -0.21694118454918    3.00909958975889    0.92499386700944
H           0.80593450285510    1.72243851611729    0.99521453149390
H          -1.06705257726921    0.96235559353235    0.62012960735792
H           0.23068797656647    2.23203379470864   -0.45351979890887
