    26
        -50.46863437  Gyration_radius:  2.40868871121 Dipole_moment: 3.385
 S           0.23098259575743   -1.27644032040998    1.21776967787624
O          -1.21174527993536   -1.48364846308291    1.20748859358927
O           0.77990516539832   -1.23209325520723   -0.11687472288249
O           0.61323421689831   -0.13940724739966    2.03427383483314
O           0.86630795728168   -2.54875723149516    1.91690629092295
H           0.63397857708946   -2.42375331692484    2.83109180045994
H           0.13164279962987    1.22931290580487    1.19049936479427
O          -0.32520609791224    1.88111453507197    0.61689498332892
H          -1.27140942957544    1.70251335460454    0.77095747898191
O           2.83584284039727    0.47270362677143    0.32915413539066
H           2.12131958075001   -0.18654651448781    0.35653597334459
H           2.69243558903062    1.03039119845768    1.09586730772415
O          -2.72193379236808    0.67124425708711    1.08417434864801
H          -3.20596084863085    0.80935535549757    1.89934008152946
H          -2.19767351940297   -0.15384201803029    1.21355447593002
O           2.21229871311376   -0.18852289137912   -2.24163680995055
H           2.75404965363855    0.21311908817344   -1.54220400712317
H           1.88193390504832   -1.00082003437835   -1.83513825652272
O          -1.97771045070625   -0.81807947830620   -1.31454167075574
H          -2.69608592120209   -0.32198564105051   -0.90525066957174
H          -1.55116757722524   -1.28429555788319   -0.57252014018876
N          -0.11912009365884    1.02765024210503   -1.87075667530822
H          -0.82841708867328    0.25102634373730   -1.80303737889561
H          -0.38051848063491    1.70610876810600   -2.57760916080716
H          -0.09505784532041    1.46767161916174   -0.90153414401454
H           0.82807485122273    0.59598067544801   -2.08340474133290
