    26
        -50.47000609  Gyration_radius:  2.45469023011 Dipole_moment: 3.895
 S           1.17212747950778   -1.38900176837818    0.95709887580383
O           0.16754450035191   -2.03530607822371    1.76289214706405
O           1.21019488183403   -1.85725317918538   -0.41885734697582
O           1.11751723961322    0.06925153073426    1.03594487891229
O           2.57819919158000   -1.76718510051898    1.59359935733787
H           2.48986684761208   -2.70508453352356    1.72571449398519
H          -0.26724662840130    0.67056132410990    1.60442050828209
O          -1.12415165246804    1.08846763818217    1.87228271039657
H          -1.11092373654264    1.13525890434932    2.82934338712023
O           2.19344675436427    0.44749982135106   -1.31858526129700
H           2.13376833184753   -0.51666250516716   -1.41342986359405
H           1.98783115539056    0.55490852602897   -0.36835492356228
O          -2.23725341049645   -1.26176013317802    0.86070297094706
H          -1.47245681241110   -1.71770277430094    1.26132845028493
H          -2.18102081579690   -0.35604481407184    1.19769008482226
O          -0.92719549858073    2.86735201061714   -0.14001018754136
H          -0.14569108379052    3.35101242166470    0.13522246842015
H          -1.15650439938678    2.28273450203965    0.61082487851568
O          -1.13868408588178   -1.28148587471203   -1.53986552446820
H          -1.72511044724050   -1.30776519567232   -0.74491390264838
H          -0.29088176966382   -1.65576110091500   -1.22438961377618
N          -0.26388757546887    1.09792236770615   -2.07552964261733
H          -0.73723597883308    0.13985566863068   -1.88775408586883
H          -0.43559525937807    1.40310334069505   -3.02685458758078
H          -0.60648855409095    1.80800744546565   -1.38799531050233
H           0.76983133626434    0.93507757662633   -1.90052494138921
