    26
        -50.46485777  Gyration_radius:  2.56495896111 Dipole_moment: 4.107
 S           0.12581274509401    0.76951478177678    0.50033299546396
O           0.74439339377064    1.06839966765404    1.78580063681261
O           0.82455448830934   -0.32640250754238   -0.17795749546477
O          -1.29261157182739    0.45991134673692    0.64887432473658
O           0.24804298137360    2.03707782518620   -0.38414504348647
O           2.80218859737199   -1.65251022721433    0.94156801698910
H           2.10191687322019   -1.19783450011213    0.41506880483438
H           3.59178841627597   -1.11848223391663    0.84109849947957
O          -1.80349574320852    0.51879604489953   -3.29618752498040
H          -2.17759083259760    0.93349309536902   -4.07492232969024
H          -2.18853642131433    0.99005991217559   -2.52034095122028
O          -2.54868925486356    1.93915017551085   -1.15806816876132
H          -2.23538194835768    1.35469709424756   -0.43702738176516
H          -1.98534442944906    2.71566246948697   -1.10435532355817
O          -1.05211792912548   -2.04811820451830    1.33423736550563
H          -0.68400529802789   -2.41481918012004    0.52597190462743
H          -1.31015700463553   -1.12571795492173    1.09511391831415
O           0.74222830607153    0.85254120931142   -2.57313192666668
H           0.47620858145619    1.70181614212723   -1.31535891810119
H           0.92455095081845    0.09681009031630   -1.99305341824773
H          -0.14824232612849    0.68407082199169   -2.96078928355054
N           0.97637481025398   -1.26708646860206    2.82639774927633
H           0.88684164784771   -0.22952621182485    2.55622984520100
H           0.13373726259894   -1.72754403213454    2.37394477221134
H           1.83061131806687   -1.59952610810210    2.32221031798103
H           1.01692238700666   -1.41443303779254    3.82848861406135
