    26
        -50.47398705  Gyration_radius:  2.43833745186 Dipole_moment: 2.216
 S           0.66401331589571   -1.71287565003856    0.56269935658679
O           0.11322472394827   -1.59708182691063   -0.78668951627338
O           1.39342487459745   -0.51424291802397    0.92760401479649
O          -0.32389259299957   -2.13050862103736    1.53000637490293
O           1.73275050175766   -2.87838927030221    0.50472400924160
H           1.17898332186522   -3.62424190496262    0.70545838446289
H          -1.43565968999454   -0.98848962464348    1.91133296631990
O          -2.10010653262084   -0.27007047391283    2.03329473329609
H          -2.66578589968347   -0.54557111776246    2.75608882681012
O          -0.21825509185256    1.63308077331434    1.26981348034078
H          -0.98978421244424    1.23165461147897    1.69519940071543
H           0.42691718736401    0.90590753979916    1.20997720535231
O          -1.13319218339532    1.96528291385712   -1.21948455714716
H          -1.77277761728430    1.21667578443552   -1.16567451678591
H          -0.82221523573999    2.07226910783107   -0.29137958023012
O           2.85304217820321    1.26575984163387   -0.38850670437756
H           2.51485158482335    0.54208190578031    0.17839263213011
H           2.67749590071714    2.07426799329005    0.09918464900534
O          -2.33571394350440   -0.35879140131434   -0.73712690600226
H          -2.50144053617609   -0.29278121588329    0.21622070916241
H          -1.55873022383991   -0.93635533334778   -0.82128851079951
N           0.87682421977334    0.58907760953347   -2.06909725242931
H           0.62902657078063   -0.34280714725948   -1.64847128212994
H           1.02036015522553    0.50965676735669   -3.06914969713355
H           0.04205489175569    1.24995851608761   -1.82563188732621
H           1.73458432283194    0.93653313099296   -1.57749634248218
