    26
        -50.46357723  Gyration_radius:  2.48352657142 Dipole_moment: 7.141
 S           0.21002660172696   -1.03162206381528    1.32702223203072
O           0.13267200474619   -1.36443283871822   -0.09764742344721
O           1.55446528580502   -0.90723068796163    1.81180929880477
O          -0.57881285516126    0.19885668728056    1.56698191349727
O          -0.50060104484724   -2.17444386212092    2.10151298917793
H          -1.31593843763077   -2.33126247392259    1.57139837084823
H           0.12114759179820    1.53008484045856    1.00244387887996
O           0.49547014590631    2.29520275377424    0.49158677940505
H           0.42077883900175    3.06261670191844    1.05994040781688
O           2.81442250210040    0.73831771379960    0.11734307998839
H           2.50799493444282    0.05045142047565    0.74237329638597
H           2.21960294620510    1.48657229571901    0.26540022226110
O          -2.49055773743067    0.30531894834371   -0.17640260656377
H          -3.15752822966240    0.89250540075194    0.18388378954998
H          -1.75221176349081    0.29537967414498    0.48701615694820
O           2.50909757313140    0.13541312677035   -2.42940803372948
H           2.62935392971372   -0.81471156379217   -2.48361408773649
H           2.78554863552409    0.37997801082569   -1.50714236906064
O          -2.74253348869351   -2.26259973067654    0.70754749841427
H          -3.48792645796030   -2.17772668457496    1.30625251346334
H          -2.68342417288535   -1.42667921948299    0.20127105074875
N           0.04177972459079    0.64856311205283   -1.67869077648602
H          -0.00817731068304   -0.21693259127181   -1.02796984964230
H          -0.77960990238851    0.68205425151770   -2.27214876271138
H           0.09907629422025    1.47775209609329   -1.07188132100995
H           0.95588437195342    0.52857468239749   -2.19887823786100
