    26
        -50.46244658  Gyration_radius:  2.47457271455 Dipole_moment: 2.580
 S           1.43186913350637   -1.47548896735370    0.68720673864987
O           1.61563361176984   -1.29333912333363   -0.74261200986929
O           2.11379480821557   -0.47792907813206    1.47757498976354
O           0.01247410063761   -1.63293072491147    0.99449174843402
O           2.08429944858736   -2.87402975289329    1.07160797966814
H           3.01082209834018   -2.68104059048603    1.18014844323856
H          -0.39756472629929   -0.35340622740427    2.23965892027950
O          -0.12516016131936    0.49830570355272    2.61568693916356
H           0.83945700642761    0.45091181565698    2.53528403728646
O           1.73401432102025    1.29939768027332   -0.73491582070554
H           2.37011678370505    1.53468716496490   -0.05567988561733
H           1.75954655689112    0.31362752358630   -0.76736103975943
O          -0.67752752045198    1.95999674981660    0.43457080677530
H          -0.53014139115375    1.58086059994737    1.32904447608229
H           0.16295921880284    1.80745438139572   -0.03410342150445
O          -0.27454994774562    1.00490676935373   -2.59423681605840
H          -0.82169387194648    1.71617993132220   -2.24736195794988
H           0.61552600814526    1.16564469967854   -2.24958007379015
O          -2.93224589699455    0.71997461419557   -0.08596530177760
H          -2.14328693004410    1.30188200191897    0.07710920794475
H          -3.31005432482189    0.55340821420603    0.77924331645984
N          -1.31178278660968   -1.04581299363236   -1.19601189816184
H          -0.76644310370131   -0.38951994736494   -1.81216609967702
H          -0.71578800645369   -1.35719733323177   -0.37809101894724
H          -2.11135380599645   -0.47792751311635   -0.79794180205780
H          -1.63292063251146   -1.84861556798648   -1.72560044784985
