    26
        -50.46642373  Gyration_radius:  2.51821426378 Dipole_moment: 5.562
 S           0.84875358836965   -1.58187173638975    0.79544139431856
O           0.56864917657414   -1.22981760971627   -0.59196561601636
O           2.21720052783903   -1.42657949894266    1.17721118972520
O          -0.08434588163347   -0.85620558105063    1.67938568652751
O           0.45793069373546   -3.10717621669174    0.93730407922548
H          -0.41753620023873   -3.15599690980782    0.54753037870633
H           0.08464026777282    0.75168747091711    1.80821217538467
O           0.16850635272840    1.73291831281102    1.71828616228588
H           0.02992109698338    2.09997572719189    2.59213096984113
O           2.53135823592092    1.13062349821019    0.28036748839165
H           2.58780004756126    0.19521323200976    0.54208772804627
H           1.89186177243011    1.53268433565745    0.88408541945616
O          -2.17161730086285   -1.84423524911294    0.53541066730127
H          -2.84843145549630   -1.99069474135626    1.19995975096300
H          -1.41930082533330   -1.40289048106819    1.00270710752143
O           1.77213603154528    1.89236133105939   -2.17930992797085
H           2.10710334261157    1.22585187863469   -2.78144202912672
H           2.19320106188444    1.69327292877649   -1.31139509051387
O          -2.83919774447713   -0.02266904857438   -1.39338132430317
H          -2.93227549433591   -0.50822062990111   -2.21440163396269
H          -2.64147652451566   -0.69431525662913   -0.70747508471115
N          -0.44438894548701    1.14462813156076   -0.91435822864920
H          -0.41360675721721    1.62777316465441   -0.00809186556681
H          -1.41749257831988    1.00301008838149   -1.23890708272846
H           0.20048202942669    1.61870096892827   -1.58505761546240
H          -0.02987449749137    0.17197189037291   -0.77433469869934
