    26
        -50.47330251  Gyration_radius:  2.42961659307 Dipole_moment: 2.015
 S          -0.58819038815792   -1.58207083342519    1.41298306071622
O          -2.01561256545146   -1.52574705486715    1.55007304426097
O          -0.13645452554227   -1.93427689367934    0.07413112109271
O           0.08304126499543   -0.36746684948445    1.87972496396930
O          -0.08936263733172   -2.73937462315380    2.38250283217756
H          -0.90298354195930   -3.19921059631251    2.56176401945925
H           1.37986831447166    0.39178409228456    1.32217072902094
O           2.12973714912865    0.90554158121431    0.92747540379923
H           2.71936366095246    1.11340651461010    1.65338582451946
O           2.00072929253811   -0.91339209611185   -1.14368586983909
H           1.29880213757377   -1.44662424942954   -0.71244391855286
H           2.32169134348737   -0.31631545455529   -0.44816744135428
O          -1.82444406603569   -0.49941592005701   -1.39706917226462
H          -1.35140088533598   -1.21360021024684   -0.92603782574184
H          -2.06347214140442    0.12937177977504   -0.69280628177525
O           0.36239974731174    2.53412167030036   -0.41805315937395
H           1.07211674192681    2.12038282793568    0.10738289070342
H          -0.46206800636807    2.31220338427345    0.03986050347241
O          -1.76362471331733    1.16867566823383    0.79931012117077
H          -1.10020115330161    0.61502728497465    1.26477922414500
H          -2.58966796102343    0.98654414327906    1.25321325202627
N           0.30895606599792    0.70521426305882   -2.33513085840714
H           0.39897892585025    0.93979259064541   -3.31618188083622
H           1.07617258408034    0.03997671986564   -2.00683070760704
H           0.35032640936740    1.55928136308472   -1.71200819133582
H          -0.61470104245128    0.21617089778767   -2.12034169345116
