    26
        -50.47103798  Gyration_radius:  2.51756765185 Dipole_moment: 3.747
 S          -0.11166038521566    0.20033528274228    1.16702950588941
O          -1.28398328531625    0.75453530720872    0.47756468612175
O          -0.28641133839719    0.07567254352887    2.58774578713492
O           0.07377025126579   -1.25417677687138    0.56737755218978
O           1.10008309101701    0.89798216764501    0.75896895274535
H           2.25347463984685    0.21096564861197   -0.20400216099386
H          -0.69803426543767   -1.76655662152175    0.94750011594564
O           2.88997688868926   -0.11612923397802   -0.88294487902676
H           3.53266348058744   -0.64466581371996   -0.40847647434054
O           1.66278818529184    2.55802119431697   -1.26740036800132
H           2.46200504904105    2.10139959655818   -1.55051107277394
H           1.49278000655449    2.21836054726198   -0.36698585944941
O          -2.90084606114990   -0.13915171088712    2.48209848882663
H          -1.99266585799308    0.02847597483673    2.80744157604199
H          -2.93795696629825    0.38147181898250    1.67117880970918
O           0.78709060408801   -1.27213267353203   -2.10494867671410
H           1.68610382723846   -0.95196228598851   -1.88555738699360
H           0.44697035789870   -1.60359672990604   -1.25959647868319
O          -1.94539081370109   -2.43425115353097    1.63693811429470
H          -2.46841069551708   -1.64488212578227    1.94331279459328
H          -1.65297036470624   -2.87611593869491    2.43727312026320
N          -0.43835760976154    1.06469219837974   -1.94066873069570
H          -0.01351495026480    0.11964496751834   -2.17313482684445
H           0.34381528590941    1.76541513734482   -1.85134935047844
H          -1.12856028136276    1.35168784049853   -2.62583284522217
H          -0.87275880228996    0.97496082896504   -0.96302038353861
