    26
        -50.44881468  Gyration_radius:  2.40102470431 Dipole_moment: 3.041
 S          -1.33389175649174   -1.05778666092965    0.76940176581443
O          -1.07326057082879   -1.60906994913291   -0.53711096638482
O          -2.51906446412474   -1.45697876940419    1.43230672799586
O          -0.12547899118773   -1.37512490478199    1.69905159533621
O          -1.30257247928675    0.47938473629082    0.67920009206136
H          -0.80884320603338    0.84052642578778   -0.17011267383315
H           0.75013718967065   -1.22763308225334    1.21367767462094
O          -0.17704606419427    1.37227626261481   -1.36720637132673
H          -0.96508134819715    1.28917434710120   -1.92944125444810
O           2.15235050623881   -0.79689298481000    0.68801853592940
H           2.04337775229070    0.20108339307338    0.69941814254675
H           2.79500097430341   -0.99989347173268    1.37113107032440
O          -2.41344596162605    0.06636203103919   -2.17888735542911
H          -1.98513312550808   -0.66327169293767   -1.69577724133463
H          -3.33830799833061    0.04789360401210   -1.93015408070435
O           0.00828530434856    1.13139381415876    3.00569673929780
H          -0.85910852915529    1.50678905868058    2.83481372535477
H          -0.08103824355633    0.18316201697660    2.83818497099789
O           1.62086575067346    1.73416618338698    0.88291973764441
H           1.04456861146117    1.99327214151536    0.15472292643364
H           1.06827020864199    1.69100279281008    1.69051587371197
N           1.18766681591946   -0.73885783453406   -2.09907726128306
H           2.01097115131808   -0.90264949884164   -1.53296134270919
H           1.40155621374947   -0.97045877798307   -3.05981936529947
H           0.46381177211414   -1.37101889225661   -1.76607336087059
H           0.43541047783251    0.63314972212912   -1.69243827440882
