    26
        -50.46844470  Gyration_radius:  2.50847327962 Dipole_moment: 3.198
 S          -0.13220953558376   -1.50270063941040    1.42807059513475
O           0.23391627170740   -1.99695058682368    0.11067373138339
O          -1.43584638619624   -1.89076195769162    1.88468611454681
O           0.92206617163445   -2.17485504436688    2.42767453802701
O           0.09407319910099   -0.06000039715214    1.53151617019271
H           1.38281040495505    0.77738754401215    0.82964506141320
H           0.38661779608733   -2.35950197756353    3.19238790832727
O           2.08082050478155    1.03770221136630    0.19107990688834
H           2.57983840149995    0.20286740326607    0.06072442592065
O           2.83656669162019   -1.52857883840387    0.16817598197657
H           1.90227431759465   -1.79797607455525    0.05268177928642
H           3.07725490383590   -1.83853601561433    1.04356206950169
O          -2.24264664444423    0.38609679862555    0.47113219368641
H          -2.76608773693848   -0.27738480309558    0.93136102920267
H          -1.36681867601701    0.32601403123260    0.91721247146188
O          -1.74824319778574    2.77717597548211   -0.80713234890931
H          -1.99729716944098    2.04066563606041   -0.22227914370000
H          -2.53754889411582    3.00978757777533   -1.29850183150816
O          -1.07665957144506   -0.68902202325208   -1.76217609224783
H          -1.74204251118016   -0.33773560030751   -1.14297892181849
H          -0.57092087189007   -1.32857222317833   -1.21731499020941
N           0.43606559540685    1.45934234033384   -1.78135185939581
H          -0.09883015796682    0.54004688343598   -1.89055495212896
H          -0.26346205258232    2.15598921447947   -1.45993721992354
H           1.17872763526766    1.32395103964621   -1.00570492158322
H           0.86758152209177    1.74554951555485   -2.65265167551481
