    26
        -50.46359512  Gyration_radius:  2.59959048016 Dipole_moment: 2.117
 S          -0.49452630226163   -2.13536064127972    0.11304009810135
O           0.29170457949520   -1.33954448045326   -0.81490531806006
O           0.26145087847303   -2.69150203768230    1.20390139372014
O          -1.69482757257250   -1.40831033220196    0.52565816451157
O          -1.04056740514143   -3.38225915830469   -0.72111373470177
H          -0.50332658969714   -4.09872691451531   -0.39799488219060
H          -1.51852412472749   -0.07201263910484    1.44214790108274
O          -1.28445721993999    0.79338044157663    1.85885727607192
H          -1.98322150373475    0.99291057547332    2.48321615858714
O           2.96025581410288    1.16601886209451    0.27275544396058
H           2.35682001766565    0.55082863899520    0.74626529802507
H           3.55041294120205    1.51122527851613    0.94411385640475
O           1.30987426500984   -0.28161257647488    1.80673339471732
H           0.49320480874369    0.17568293650570    2.04741595287049
H           1.06371759641418   -1.20656391087651    1.63289958166044
O           1.65696883964626    2.67612451913011   -1.47101728136960
H           2.20619545326063    2.19496129653771   -0.80558552544204
H           2.05134233394057    2.47840195468326   -2.32199482473583
O          -2.60124928857830   -0.15027974871290   -1.64940209365423
H          -2.39886572196846   -0.66551789589546   -0.84008442566329
H          -2.54295979560126   -0.77649579593414   -2.37234315102363
N          -0.42795778108068    1.16712762696496   -0.74330955877411
H          -0.67726038427543    1.36903364596694    0.23453192246557
H          -1.29651407162629    1.07483820632033   -1.29542824276541
H           0.26281986802459    1.86280214371096   -1.11247742340390
H          -0.00050960476854    0.19485003496123   -0.76587997038495
