    26
        -50.44596050  Gyration_radius:  2.52159432804 Dipole_moment: 3.875
 S          -2.46851165167371   -0.19968137631400   -0.07421196560546
O          -2.03294114357426   -0.78606380522299    1.17369061908988
O          -3.84733955188661    0.08242379882296   -0.20660193352632
O          -1.61173045845689    1.08262271034388   -0.29967411030341
O          -2.02858369286118   -1.11020659379765   -1.24503118505950
H          -1.03122494114592   -1.10003560931173   -1.33000684847885
H          -0.96303462410640    1.14180686681361    0.48032330337011
O           0.52295635396511   -0.94211739383256   -1.60524766805804
H           0.76396630453252   -1.43752061559069   -2.38949027585353
O           1.62804895922053   -0.83578280939322    0.89537897569114
H           1.36642070913490   -0.93951887987597   -0.03648812892788
H           1.21781555821089   -1.59961949589055    1.33864888167719
O          -0.07774717776745    0.99599635381245    1.72849266294916
H           0.61299044289506    0.32916687296082    1.45796719793307
H          -0.73387241285526    0.48856935337706    2.22007941280092
O          -0.18577827213941   -2.63708178034511    1.74608698150781
H          -0.91901954882756   -2.03328933157833    1.51405075927313
H          -0.51166084340748   -3.19614956150692    2.45195312734574
O           2.34106188163528    1.95300505389814    0.36697049957491
H           1.68127606093524    2.22179158945665    1.01325626099216
H           2.54406328924708    1.03299307525866    0.57245132775249
N           0.76829450367154    1.59008690121664   -2.01018361317091
H           0.63204339570046    0.06229065747989   -1.82912591538426
H           1.05747816406351    2.00264409741029   -2.88694504539879
H          -0.14729782473484    1.94972461119195   -1.76560574803312
H           1.42232654021784    1.88394532060731   -1.28073761215616
