    26
        -50.45600748  Gyration_radius:  2.50174826792 Dipole_moment: 3.918
 S           1.94407223873149   -1.19298910251693    0.33441637348682
O           2.78668126042583   -0.02242336754678    0.45186588943688
O           2.58192277472229   -2.46150644839727    0.48370377812340
O           0.90391085316367   -1.07987631719182    1.58539929765337
O           1.04710296976352   -1.10697549367386   -0.82316310816604
H           0.93001213941528    0.21953786644953   -1.73464511066697
H           1.48182581053020   -1.20065875012165    2.33141158502958
O           0.75334297662853    1.05050295397053   -2.24641679205949
H           1.43711700104845    1.10152751966480   -2.91516349268805
O          -0.93834971669346   -2.56187624738850    0.06081366408313
H          -0.15643286968112   -2.16309891518401   -0.38145840607855
H          -0.57769495235482   -3.14643724786184    0.72930677478077
O          -1.87408341536810    0.38868622930695   -2.24513276291586
H          -1.84887897373452   -0.50589221783094   -2.59239049000446
H          -0.97922430899897    0.75770257364163   -2.38775040445513
O          -1.40827315204558    2.11690067315570    2.21944024573190
H          -0.55245435298930    2.12950291595904    1.76435501177497
H          -1.37731119418562    2.80827644261113    2.88099598299017
O           0.77161787976611    1.60138531245508    0.48426020638063
H           1.59103968881146    1.05380930823889    0.56080331118054
H           0.75183974715196    1.87350257864761   -0.44427224318414
N          -1.47868264973032    0.06301491123332    0.38908983939270
H          -0.51898799616401    0.48126000560754    0.47051260921592
H          -1.39661313351981   -0.97272419883179    0.49284042171673
H          -2.04919506640261    0.50266665729177    1.11147254127948
H          -1.82430356829641    0.26618234832537   -0.58029470203698
