    26
        -50.45852387  Gyration_radius:  2.50822226564 Dipole_moment: 1.937
 S           1.16466887145295   -0.79074557810694   -0.19075785440482
O           0.95127986774617   -0.41264757505447   -1.58108069784686
O           1.25886037700223    0.40862714513530    0.65808272042095
O           0.12234525626359   -1.68390216286794    0.29117207603497
O           2.50973868351795   -1.54470222305225   -0.07157055344334
O          -2.26904537016605   -1.60023030163696   -0.83430170733370
H          -1.36289261015372   -1.72033636435439   -0.46935138214903
H          -2.36196015123155   -2.24893173104221   -1.53350729409529
O          -2.02189072594170    1.37283179097779    2.31196548396124
H          -1.99620747467529    0.37645855621192    2.26444280360731
H          -1.61553396729680    1.61058047739781    3.14712834575720
O          -1.82308414603252   -1.22027030295590    2.07399381923215
H          -0.98569466425632   -1.41559198777342    1.60874967779223
H          -2.51164063477046   -1.50957876805696    1.46635489401749
O          -0.58421472704245    2.02743012468370    0.32338623637796
H           0.25249578192365    1.40164204830817    0.48676174407940
H          -1.21623615988191    1.83874219045121    1.11490417070738
O          -1.37289227828473    0.78971406745575   -1.69927304649054
H          -1.94040762017911    0.04106685580344   -1.42056750022612
H          -1.01911498781112    1.61306199299761   -0.54746278983979
H          -0.49122657491346    0.37488296052623   -1.85678747279578
N           3.58380389630170    0.55491571750543   -1.16412763015456
H           2.75576179041149    0.53502361851850   -1.75227097379853
H           4.38732638298277    0.80700641117826   -1.72537382591339
H           3.44052583295423    1.26598412262764   -0.45832302500985
H           3.14523537207920   -0.87103106487641   -0.44218619846792
