    26
        -50.47201785  Gyration_radius:  2.51736892483 Dipole_moment: 1.435
 S           1.32832189472279   -0.30486661102512    1.46305336875033
O           0.05259224853495   -0.94559335974172    1.14244223987621
O           2.13268727743824   -0.09778578067775    0.27750289687835
O           1.14029312526783    0.87994145106047    2.27215526193990
O           2.12788248395131   -1.33494008882798    2.35939360147218
H           1.67751749553636   -1.26088000491319    3.19392303071801
H           0.13776903860800    1.89978744175910    1.51629699753878
O          -0.46323894967428    2.47117661915100    0.97600469551109
H          -0.44025153229744    3.33982168888774    1.38098040010321
O           2.00900736125106   -1.97270332800329   -1.65011503827170
H           2.13375346144805   -1.34049743786367   -0.91399598791941
H           2.88460733199581   -2.15838988263183   -1.99081885633701
O          -2.31833087151798    0.39657188399968    0.97227079133822
H          -1.57166864570676   -0.18620868746759    1.19315446653594
H          -1.92366574263311    1.28051369180211    0.92901792977259
O           0.79295538454471    1.63634868942178   -1.30880025010987
H           0.27711758687746    2.11779554077266   -0.63849340964372
H           1.49607718334417    1.18325049088695   -0.81038702536827
O          -3.05332485161845   -0.57767343698523   -1.39332344416984
H          -2.90882815347118   -0.13863160781115   -0.51876501205695
H          -3.69492096049682   -1.27153105776056   -1.23801287135831
N          -0.37954631462024   -0.73755596732940   -1.47233927503604
H          -1.39591425800799   -0.79954591934148   -1.69059054646601
H           0.22074763534908   -1.39053303196753   -1.98457715980853
H          -0.02032613592002    0.24535411117016   -1.61593815288950
H          -0.24131311291419   -0.93322541672854   -0.45003864105950
