    26
        -50.44044607  Gyration_radius:  2.48917489667 Dipole_moment: 4.876
 S          -0.62915728066016   -1.37345960882500    1.89277171514417
O           0.07976528674984   -0.47185355872301    2.76211365560825
O          -1.36533008032069   -2.43128275298389    2.46847975400559
O          -1.56207953394501   -0.50461390715687    0.98320629988896
O           0.37359012395890   -1.96337225982522    0.86493696015436
H           0.88934924419365   -1.23037514704168    0.42955808278787
H          -1.39516639360736    0.47026293069042    1.14993356287365
O           1.73660658890852   -0.17674931434071   -0.45736639131271
H           2.65545654877663   -0.45063916751714   -0.42393846819068
O           1.46546406482843    1.54210138907817    1.76461976414974
H           1.17385706486483    0.81077730220736    2.34431631697193
H           1.74077648485361    1.11858287267544    0.94040061389366
O          -1.06903184845426    2.00702413711972    1.39685666076566
H          -0.08396374401597    1.98597079587639    1.56999308933889
H          -1.48259359960964    2.29019686102301    2.21424036640673
O          -0.42987596376810    1.81247842972013   -1.33515729188098
H          -0.81005546283237    2.14580709335578   -0.51369075581591
H           0.40802430225601    1.40179722991194   -1.10034209089280
O          -1.84804878768327   -0.47184140178023   -1.87871758800117
H          -2.03539996196529   -0.70999104681261   -0.96413806349219
H          -1.52098424957392    0.44632844699415   -1.84329602993922
N           0.73957641165781   -1.29575595206462   -2.53768306525185
H           0.88147483404440   -2.29763442175383   -2.52587362182558
H           1.35678196063248   -0.58871584730980   -1.34302185393441
H           0.99757992409991   -0.94508601224841   -3.45111579639380
H          -0.26661592338537   -1.11995710027423   -2.40708584505118
