    26
        -50.45540460  Gyration_radius:  2.64286962393 Dipole_moment: 5.079
 S           2.00922430658228   -0.12513981292030    1.86010401004364
O           2.65191977098457   -1.10894073562390    1.01387986975316
O           2.58425185067573    0.09798402331774    3.14517438045609
O           2.20716068660666    1.29643215447837    1.05957637424197
O           0.54484371011855   -0.26709893629168    1.84114461342734
H          -0.84251585146839    0.59138724709756    1.62731661680427
H           3.01532942625113    1.61757729569720    1.44699036479345
O          -1.64186557695025    1.08941668658416    1.33906341981141
H          -2.18151327078078    1.20739043328517    2.12170043727313
O           0.08956097651449    2.48340636917598   -0.28606918640722
H          -0.65385832075917    2.21926354440808    0.28152701399412
H           0.88635694078549    2.20185557239848    0.18966530626333
O          -2.38153374363135   -0.30023596911415   -0.97483659648488
H          -2.26254077163856    0.16441700406948   -0.13013615565023
H          -1.75157783256511    0.10899798061867   -1.58382883720953
O          -0.04873309603158    0.74366114249056   -2.22367188540267
H           0.00130119168822    1.47608098587555   -1.54604642665286
H           0.28792662643042    1.10753565289671   -3.04247303141009
O          -1.54046937007958   -2.84481879726924   -1.02233909275209
H          -2.00666764833669   -1.97954286362604   -0.96071026846151
H          -1.98082553005022   -3.34516275096793   -1.70927853672500
N           0.60363712419735   -1.30575427017135   -0.52771573053751
H           0.01061988851202   -2.12828644818866   -0.74411588467909
H           0.50284047783981   -0.59762854182497   -1.27760977178175
H           0.30206188273496   -0.88981480079235    0.39401648506179
H           1.59506615237263   -1.51298216558474   -0.29132747776872
