    26
        -50.46435326  Gyration_radius:  2.4435354518 Dipole_moment: 3.756
 S           1.69661555200184   -1.46545871688950    0.71179740058787
O           1.62970303692749   -1.04375373751470   -0.70021013374870
O           2.10161860036396   -2.80996829072175    0.90975146344659
O           2.74662939438369   -0.49674531281470    1.38322968117494
O           0.40447916885620   -1.14552995061728    1.35045223886059
H          -1.02209516073585   -1.41117253709876    0.67948735516540
H           2.66946036081907    0.33978089197676    0.91328972355320
O          -1.89372059575552   -1.50311271101989    0.21023566979602
H          -2.33648864192722   -2.24716093243373    0.62007790276644
O          -0.69286999815204    1.78268342598847   -1.83896092610823
H          -1.34009897787422    1.81243941253685   -1.09550482709370
H           0.17745437050512    1.95755832770425   -1.42692571971624
O          -2.14368605599369    1.32826702494940    0.35047177921024
H          -1.49882608973447    1.49689886828227    1.05439194036901
H          -2.27987677134711    0.37026966816884    0.34820388937132
O           1.52695070597832    1.55221982248059   -0.26056179694468
H           0.98896136642149    1.63181241676254    0.54682668507365
H           1.55154358334976    0.60723125712639   -0.51407532162972
O           0.05906265952636    1.30901853455884    2.04532104048747
H           0.33806032948285    1.47695857410468    2.94586806983226
H           0.17537672859888    0.33664310641529    1.88522708917782
N          -0.58543497622089   -0.79443121315473   -2.05272752685054
H           0.35094991652324   -1.00097977286200   -1.60061576067166
H          -0.65333510164947   -1.21807485884989   -2.97075473952550
H          -1.30325311157860   -1.15845680106044   -1.40199876556633
H          -0.66718028276933    0.29306348398561   -2.09229642101574
