    26
        -50.46416131  Gyration_radius:  2.59526075253 Dipole_moment: 3.290
 S           0.80447600435740   -0.44192534770482    1.97039714327768
O           1.93352189513570    0.36189148331233    1.52590865821892
O          -0.45851296277737    0.26445469496957    1.94044904167504
O           0.74326008701293   -1.71954836684943    1.26835967131133
O           1.07753387984780   -0.77700485151246    3.49778641756480
H           1.96724284742398   -1.11676700858356    3.50443039928429
H          -0.75403396866208   -1.73117808269763    0.57246780346409
O          -1.60667154470440   -1.40177400452573    0.20019936832551
H          -1.90409146777031   -0.79136939664501    0.88605611347264
O           2.08638321429785   -0.69618409490955   -0.86673081024897
H           1.84278809510430   -1.55973187517110   -0.51036139762579
H           2.21314330747164   -0.16157600520378   -0.05295414701831
O          -1.95407008369962   -1.86437667127626   -2.60250437961089
H          -2.03193362844802   -1.93561362142799   -1.64060450240873
H          -2.32521154312923   -2.66757843876697   -2.96857184730628
O           0.46357626351515    2.63425297105249    1.22787536035770
H          -0.05637370769525    1.88896696492357    1.58911384185517
H           1.36383092932686    2.28624489391884    1.25101038941902
O          -0.47780896753351    2.76648082926807   -1.21960929505939
H          -0.06296823116980    2.80371805271558   -0.31572302526254
H          -1.30862704363395    3.23773308058983   -1.14439392851010
N          -0.31306132803012    0.13789132531560   -1.64026479400293
H          -0.65142004821551   -0.23360068688830   -2.52848468178999
H           0.69693619656965   -0.13573260708705   -1.47643548835548
H          -0.41382923605741    1.18251862201998   -1.57762553561012
H          -0.87407894855854   -0.33019185889239   -0.88979037542062
