    26
        -50.46651130  Gyration_radius:  2.46841716161 Dipole_moment: 5.074
 S           1.67712760759926    0.03741262062696   -0.52285588525302
O           0.65680726138706    1.08702662183683   -0.68120747539481
O           1.82257922240214   -0.76330763329636   -1.70300792492133
O           3.02730755968917    0.74933626300839   -0.21581034063494
O           1.34019094884997   -0.76702161937595    0.66288463551832
H           0.40147654495694    0.00103992414861    1.70420786291006
H           2.79364406708454    1.41569022796471    0.46656784730084
O          -0.17122682637306    0.47263693952331    2.36602126889492
H          -0.14235817958902   -0.05675894113224    3.16468771472845
O          -0.37620507391353   -0.86535259091972   -3.28323308571057
H           0.44253219356004   -0.82142507277128   -2.74909751739752
H          -0.11831822748788   -1.27840425709964   -4.10831482672707
O          -2.60306226400802    0.90681319292629    1.18560381215928
H          -1.75681165712084    0.75487023691729    1.65560817832081
H          -2.73393331050450    1.85615565352410    1.18415766145133
O           1.68147156163335    2.40264825864786    1.36640860235522
H           1.13858798653012    2.27024011318566    0.56962117359139
H           1.18998290931040    1.95472817451152    2.06724785707305
O          -0.48658422726768   -2.58028340160754    0.16734616581097
H          -0.69504722651054   -3.00307470890729    1.00204214137043
H           0.33122261265941   -2.05302021063883    0.31413539745320
N          -1.52017826982183   -0.34677444971948   -0.93052278551612
H          -1.26218813037357   -1.28352523470661   -0.54369504017560
H          -2.25606230182001    0.08893986862084   -0.34561054001814
H          -0.66011055632021    0.27288957928243   -0.86464392246975
H          -1.72084423453427   -0.45147958447992   -1.92854097472016
