    26
        -50.47398935  Gyration_radius:  2.40008509864 Dipole_moment: 6.576
 S          -0.84739323018872   -1.15271381559465    0.73624892193735
O          -0.09868701445026   -2.19807753167084    0.06686675905354
O          -0.11097739570058   -0.46336646393885    1.76988438346800
O          -1.37503627612129   -0.19227008193151   -0.26016383581289
O          -2.09771561460087   -1.78991797736101    1.42339287850368
H          -2.52857209845006   -2.26789490762016    0.68950052612419
H          -0.33990288362052    0.37221277608162   -1.35556383341676
O           0.31086800862496    0.78247524146081   -1.98417011725465
H          -0.14872726000901    0.88208639214550   -2.81914948984499
O          -2.48247579976672   -2.61016334154012   -1.06238389932775
H          -2.49992618675812   -1.67582933597525   -1.29762639688878
H          -1.54250925378223   -2.81640728004225   -0.93000763337228
O           2.35970392934632    0.40232016839589    1.28204149582690
H           2.53869191083346   -0.19676361135570    0.51732080292732
H           1.55613579462396    0.01757351595059    1.68747254554301
O           2.15325711199198   -1.09131583004576   -0.89054303296486
H           1.72409809961565   -0.50209528521756   -1.52394587269844
H           1.43675618474845   -1.65776903199094   -0.54472062843746
O          -1.20809025768006    1.95757767636702    1.26626988836525
H          -1.46565994052482    1.25118712018432    0.63588550223975
H          -0.95184422588523    1.45369632014316    2.04906219180383
N           1.13596889765154    2.33649912597840    0.09831241332531
H           1.75258671784895    1.59948063562554    0.62731838669974
H           0.95728592688741    1.95381733028266   -0.84650963980835
H           0.20077397400142    2.35484534607343    0.60360881290950
H           1.57139088135986    3.25081286559586    0.06159888110215
