    26
        -50.45061949  Gyration_radius:  2.46582588676 Dipole_moment: 4.272
 S           0.50255805490473   -0.77805298963334    1.74480033126430
O          -0.01706205687253   -1.12788587199598    0.45113648255254
O          -0.20705207576296   -1.27825223820133    2.87560534461461
O           1.97341965215998   -1.21440693939575    1.83485941079529
O           0.56827064882960    0.76767321460361    1.85326469228173
H           0.44579325261306    1.21427739772304    0.95328214242915
H           2.38925849972727   -1.19261251261506    0.90918001189685
O           0.15000890847062    1.97673474448215   -0.35977021357654
H           0.02753746246732    2.90685030562351   -0.16280222464866
O           3.01655234084366   -1.05564240970382   -0.48595189567166
H           2.43008514731096   -0.56825626919001   -1.13444854020218
H           3.84420375430561   -0.57179367529195   -0.45438911286681
O          -2.38454516530442    0.09465844407430    2.04724378866366
H          -1.71679113462687   -0.54472268313322    2.34334102413931
H          -2.41978958087738    0.76439345455953    2.73331882201809
O           1.49009847484263    0.30854940185887   -2.10902645486224
H           1.11464088160729    1.01149874347296   -1.55717011083329
H           0.73628324059358   -0.27742046666151   -2.30857741766100
O          -0.67227036202116   -1.38141055938415   -2.10796679322218
H          -0.52170268115698   -2.28962726040824   -2.37499065665639
H          -0.49323355952763   -1.35122219577592   -1.14791045322621
N          -2.15190450899153    0.91530627679093   -0.74181119114606
H          -2.33466132166162    0.51927316819575    0.18062605707020
H          -2.00290560930280    0.14378069739964   -1.38271373474513
H          -2.97149428658723    1.42760636837809   -1.04094724585917
H          -0.79529797595686    1.58070385425674   -0.55818205255744
