    26
        -50.45643454  Gyration_radius:  2.50597228468 Dipole_moment: 9.715
 S           0.49916402174735   -0.37974843964111   -2.33439911256709
O          -0.82502900249359   -0.41521955239239   -1.65647303763845
O           0.39725199062630   -0.28635679988599   -3.74880378353876
O           1.18431757603973    0.94703663433041   -1.76975943494921
O           1.33586523727743   -1.45577930791169   -1.81948879612107
H           1.63476365859828   -1.69458434669297   -0.34898017138849
H           0.44479897236662    1.60284091026561   -1.82184357894666
O           1.72067904715143   -1.87415424396474    0.64465633026539
H           2.43848327119498   -2.50290653362043    0.72922996662775
O          -1.06432692315316    2.21550617031164   -1.51756919131689
H          -1.37567600091350    1.31654308623865   -1.71723979457383
H          -1.07837408171325    2.27902623582951   -0.54768084180194
O          -0.63833736390277    2.05204858987665    1.25780850715202
H           0.25042279711770    1.61344110642393    1.14925101459727
H          -0.46631070808434    2.91182535633251    1.64463327806307
O          -1.84471263806688   -0.05859433139498    2.39119689656888
H          -1.54861413085900    0.77922698451487    1.97437487616154
H          -1.45321730688169   -0.07893555792183    3.26612978108361
O           1.67099040080298    0.87101660385101    0.89367501329895
H           1.76251325821644   -0.08488057540463    1.03709944346938
H           1.72058250546768    0.97694322378187   -0.07402248351258
N          -0.96460445312829   -1.76803061904666    0.49371362862636
H          -1.37762883568957   -1.16527234851602    1.24221286211566
H          -0.93133533040503   -1.19694649401464   -0.44608980850632
H           0.02301417024224   -1.99546127672683    0.72079532600964
H          -1.51468016160168   -2.60858448461601    0.35757309083216
