    26
        -50.46699495  Gyration_radius:  2.58707459201 Dipole_moment: 1.846
 S          -1.44293331820474   -0.71815234323332    1.73706689996270
O          -0.51006601775144    0.11377553484668    2.48051742620719
O          -2.32118846665012    0.01063595399712    0.86237007846521
O          -0.72375847266419   -1.79272928848876    1.03733924732146
O          -2.35977632060559   -1.43923802409600    2.81217546499456
H          -1.74201285838443   -1.82030661363136    3.42904210706750
H           0.80615492537196   -1.22526344897114    0.95940425803110
O           1.63582605006269   -0.69499117703123    0.87782788106649
H           1.76447147229536   -0.32892591874515    1.75692139319434
O           1.68676500089501   -1.23637238403859   -2.00542249073853
H           0.73753037239635   -1.40564599214361   -2.05147994812089
H           1.92290701346109   -1.30275322587224   -1.07278294028657
O          -1.08325421828245    2.37645783575781    1.24434983193162
H          -1.95636214893712    2.04316186695499    1.00042839717475
H          -0.78034815972899    1.70977539422838    1.89566799638548
O           2.00528752437638    1.34867122607711   -2.74214084628799
H           2.88796697935242    1.56748607101983   -3.04026263179464
H           1.97514905787308    0.37251883462558   -2.64047080237970
O          -1.13073535977962   -0.99630049762506   -1.42625158467696
H          -2.06620211119874   -0.78223376785623   -1.46251461931052
H          -1.01456597946161   -1.42009660250220   -0.54410356665240
N           0.34249852567756    1.15371203185298   -0.63016501221129
H          -0.32988335739846    0.47731567445949   -1.05651577555701
H           0.89881188233285    1.59281911626741   -1.38145773687955
H          -0.17868418087470    1.82440044226500   -0.00475588412894
H           0.97640213583054    0.57227931189621   -0.03478710276344
