    26
        -50.47194182  Gyration_radius:  2.49770294162 Dipole_moment: 3.376
 S           0.58031655961595   -0.10096864780400    2.13234751579898
O           1.55428270344418   -0.11840411022489    1.04631557369997
O           0.12808674628534    1.24437374006669    2.42874310857250
O          -0.49864953895008   -1.04625522853709    1.92273381540987
O           1.34942242550906   -0.60640946918810    3.42196151018329
H           1.93903599031892    0.11883300122511    3.59945839821300
H          -0.64137825102585    1.94321692939378    1.22338087002638
O          -1.10925874226870    2.30581351200553    0.42415327138703
H          -1.54894217669997    3.10544486373279    0.71775574574234
O           1.24722692041224    1.69024186337771   -0.90658540847974
H           0.42567840851814    2.08941655308840   -0.58102946284269
H           1.50405133929427    1.05390009639413   -0.21117846571398
O           0.85838037947083   -2.47874337915344    0.15849502740812
H           0.22987222394544   -2.39859091450235    0.89639388532330
H           1.43264203221663   -1.70393763091290    0.31775363743605
O           0.64334913520767    0.36167928547989   -3.07499707164063
H           0.98425589151400    0.87093855997449   -2.28836642555009
H           0.25292226007256    1.01242707565284   -3.65954604703188
O          -2.16070362949678   -0.17792412275042    0.04035964080160
H          -1.70451013522725   -0.53930354035644    0.82952644003310
H          -1.94553388544291    0.77251987026612    0.04927260217224
N          -0.71248802894142   -1.49051499108805   -1.72064287489988
H          -1.38374604012034   -0.94725213030319   -1.09328227545276
H          -0.18881868677490   -0.81327767312881   -2.33200389359924
H          -0.02627050690802   -1.97228527861382   -1.06132723382531
H          -1.20922339359945   -2.17493823425934   -2.27969191363687
