    26
        -50.46752121  Gyration_radius:  2.4822241388 Dipole_moment: 2.136
 S          -0.81086281623495   -1.97250278690344   -0.29109240744002
O          -0.50751357797144   -2.59039361039202   -1.55374489315596
O           0.36782238577014   -1.68735127183232    0.51878867056408
O          -1.65019941084841   -0.78169649880858   -0.39351979108466
O          -1.66107777838464   -3.03969259461090    0.52999801436496
H          -1.73533716135849   -3.75285114317859   -0.09582193149882
H          -0.70636303235383   -0.17179440855053   -1.63948670368818
O           0.02754519366898   -0.04223112142974   -2.27428217855786
H           0.23377546258255   -0.95167533686307   -2.52535201878348
O           2.75632481278922   -0.62176901059731    0.80926920931717
H           1.96748397396400   -1.18376115566887    0.65669255454865
H           2.73487892447771   -0.41412509405056    1.74658742539156
O           0.06858509845885    2.38651883625826    0.98069734613818
H          -0.80825481515755    2.40188667726935    0.54644520198500
H          -0.00903272050041    1.64316887815341    1.62114438698676
O          -0.36909312811489    0.10563385319974    2.30609444916175
H          -0.10171471992649   -0.59277436369623    1.66932270919912
H          -1.32472560183646    0.04453156847061    2.36174776588327
O          -2.28085535360407    1.82294576747180   -0.20503211561309
H          -2.55468296529400    2.02860400462335   -1.10006547204712
H          -2.14859882225414    0.85713116449415   -0.18203307536018
N           1.72239296793537    1.31535277813354   -0.71297985202258
H           1.12200772478929    0.79655341902643   -1.40493977913495
H           1.06205144396943    1.84061852246432   -0.03346878097032
H           2.25550866307880    0.60472040231065   -0.14808369259490
H           2.34993524249415    1.95495254506767   -1.18688505202448
