    26
        -50.46115071  Gyration_radius:  2.40281599575 Dipole_moment: 6.296
 S           0.03388583370772   -1.72886892423474    0.55919229922536
O          -0.79356288257509   -1.32574833350729   -0.58325386308458
O          -0.64414175498714   -2.55016971278782    1.50590326719718
O           1.24666933772938   -2.50660290557077   -0.04950748218377
O           0.61472106961276   -0.50954612899622    1.17647208027638
H           0.53423597757521    1.14997831399284    1.06142540364403
H           1.52300709207912   -1.92395047736136   -0.79038830123724
O           0.41995482588346    2.10063178010362    0.83202421064667
H          -0.24168368843629    2.42829423731290    1.44503838886695
O           2.95302329723250    0.47110028285658    0.36570248874684
H           2.76373442958923    1.40111358831439    0.51752737144512
H           2.24098096469593   -0.01620429612412    0.82957676377792
O          -1.91830004962007   -0.01953240659788    1.91960010424695
H          -2.26655215641732   -0.85305441363510    2.24759358846619
H          -0.98825699980214   -0.22578746724876    1.71984757911324
O           2.01573058100009   -0.66631990963408   -1.83057289108364
H           2.45450056027082   -0.15966561187481   -1.10391009566862
H           2.72326623558267   -1.04252109034460   -2.35773760342346
O          -3.11620244938283    0.56415428152697   -0.43999379905903
H          -2.79231207997003    0.47465242378383    0.48297962419959
H          -3.10086959862838   -0.33739627004757   -0.77587272963624
N          -0.71522604408803    1.09195455690986   -1.38143968938083
H          -1.74868668200582    1.17513050324233   -1.20275586946480
H          -0.56013403193494    0.04592082992300   -1.14471900508832
H          -0.43857562666873    1.30524238051199   -2.33199215862034
H          -0.19920617043796    1.65719477949212   -0.67073970192869
