    26
        -50.47611853  Gyration_radius:  2.40926798797 Dipole_moment: 3.947
 S           0.49081692681298   -1.69755415790199    0.15170613893433
O          -0.19508974756545   -1.45384563896626   -1.12516633911527
O           1.92079389100147   -1.70964508855413    0.02185102670659
O           0.05497719372919   -0.69162681070723    1.13753768059814
O           0.00740318544280   -3.07350811726657    0.68501323523174
H          -0.96793733257818   -3.00119940303322    0.60075901924744
H           0.88795702758435    0.67656942493798    1.37162726452877
O           1.32026541201819    1.56410466902811    1.44603542873405
H           1.64840920941075    1.62702613955552    2.34410304309391
O          -0.80187830714558    2.38372758699446   -0.16935628883969
H          -1.48757604002735    1.77599832569724    0.16797445308152
H          -0.08586997629204    2.36248391254141    0.48636700567374
O          -2.43099636051092   -2.29635910030080    0.01367035590939
H          -2.73829754943009   -1.46436976813642    0.40221380347868
H          -1.86217271439751   -2.02429179178467   -0.72557499547096
O           2.79293069152216    0.69903112066039   -0.71969355150770
H           2.54616053697462    1.17977516948712    0.08839302187519
H           2.67318674172556   -0.24792389035330   -0.49216490134915
O          -2.29350493571358    0.37325638122716    0.98897231475894
H          -1.40418262142306   -0.06148278373687    1.06366390014508
H          -2.58076762040919    0.55304787784293    1.88588178933739
N           0.49465166770445    0.92133399944291   -1.95742301870682
H           0.42809853395596    1.13105960439653   -2.94686518444578
H           1.50366318787444    0.93786644939711   -1.60776699453615
H          -0.07492765743689    1.59479568732120   -1.36761637950070
H           0.15388662717373   -0.05826981777907   -1.74414183785996
