    26
        -50.46152692  Gyration_radius:  2.59905065915 Dipole_moment: 7.381
 S          -0.58387590935808    0.31574466023922   -0.30444115441452
O          -1.10672798601586    0.78745795702142   -1.56165936070003
O           0.24014498863891    1.31391717384892    0.37837283602574
O          -1.61187588355802   -0.20995577547728    0.60149627485416
O           0.32172454677945   -0.93112283813503   -0.54679410413037
O           1.32110151098620    2.29369692773438   -1.84956249670845
H           0.98195992576422    2.08026710041449   -0.95948729832848
H           0.53510109338251    2.40871031435508   -2.39104189304419
O           1.66886898153825    0.31381442348167    2.27852709753870
H           1.66465656929310    0.97078946515192    2.97739044860798
H           1.22143337161814    0.74704605098104    1.50183698049611
O          -0.39005236258436   -0.25687567181327   -3.89657360697754
H          -0.74500184249843    0.18042424944763   -3.09373680872404
H          -0.96988267589111   -0.99871716448837   -4.07261598863787
O          -2.34916540248736   -0.41550307071865    3.26530202815604
H          -2.28273472556993   -0.16925138636776    2.32750263264984
H          -3.19899700172344   -0.09421028431171    3.56842352854582
O           1.87203896801383   -0.25475471634343   -2.42298733708276
H           1.24631474075362   -0.35885316928325   -3.16670022480792
H           1.91371629229544    0.71696776258056   -2.26952671439587
H           1.00292521323599   -0.70410440144184   -1.28257673138946
N          -0.13792074426800   -1.58471180029292    2.20171946276637
H           0.68000039460964   -0.91684861884909    2.34582689205205
H          -0.73845292877481   -1.60884953316374    3.03036961096768
H          -0.73332682694016   -1.12111810655330    1.42954954591144
H           0.17802769276573   -2.50395955801627    1.91138639076177
