    26
        -50.46152702  Gyration_radius:  2.59940493795 Dipole_moment: 7.376
 S          -0.19127982382886    0.53668537098911    0.45534492115944
O          -0.11045668162601   -1.02117061382918    0.46158863852460
O          -1.54462199927187    0.78221671903925   -0.05656630032708
O           0.02297903885644    1.03909783685096    1.78881765977097
O           0.81232398658927    1.01098639712175   -0.49830797502485
O           2.83763754555741    0.92956196075318    1.22919763865780
H           2.44427710005160    1.37767273870942    1.98331500739558
H           2.19999325586540    1.05899609674680    0.50155961652103
O          -2.99574271632407    1.37362079314250   -2.34289087292803
H          -3.56739866223143    2.14126331115058   -2.37951904242832
H          -2.53771103470340    1.41468186024799   -1.48665765871715
O           0.66932263882277   -0.53061846864350    3.83180793342625
H           0.40606345438004    0.13236261954301    3.15879351855866
H          -0.14498895453343   -0.84925127999936    4.22284829164111
O           0.82047432603562   -0.32812976815631   -2.70252745182725
H           0.93697599821813    0.16564092520894   -1.84581604656410
H           0.97795703079461    0.31702706162401   -3.39467855914510
O           2.00956806197620   -1.55939708013057    1.72550771435380
H           0.75642721277375   -1.30360031056160    0.93649320671828
H           2.54029919374705   -0.75604893540163    1.51934866982363
H           1.67661798970888   -1.40713699087430    2.63174926798357
N          -1.62026978794371   -0.94051720961566   -1.96685243133100
H          -1.79921483048806   -1.91398166281605   -1.74433860955070
H          -2.34112271707461   -0.52462731316536   -2.56287673078768
H          -1.60531469288818   -0.33765126694251   -1.07126979855233
H          -0.65279493247175   -0.80768280100514   -2.39407058735351
