    26
        -50.47200630  Gyration_radius:  2.4985283258 Dipole_moment: 3.927
 S           0.20837700372249   -0.87635076063149    2.00306168554266
O          -0.17269861101205    0.49818541422005    1.76260564706194
O           1.39311178829215   -1.26643066456569    1.24082524827014
O           0.62686262161254   -0.95419034805355    3.52928771025578
O          -0.87456403130779   -1.82567087063697    1.83201106158228
H          -1.58749466996212   -1.73102249257616    0.41101200218942
H           0.68637993336587   -1.89294462284829    3.67183966603485
O          -1.94751547224743   -1.63574957876345   -0.51098367815174
H          -2.59675606404530   -2.33364378779880   -0.61303715128817
O           2.19166527441095    1.20692104155949    0.83463072829498
H           2.23768088165861    0.24299147435798    0.99232224385548
H           1.36448995564033    1.43271550602053    1.29219318746461
O          -0.91124046057594    2.36204347230316   -1.93670111503310
H          -1.40201316006798    1.97358020576832   -1.15982603778236
H          -1.50921509938943    2.29863439521692   -2.68233243363577
O          -2.11298413864201    1.08104113560952   -0.00206894068783
H          -2.24951043773523    0.16841280849360   -0.30196683706855
H          -1.48327547903525    0.99968119336976    0.73866649810751
O           0.66454986675286   -1.50900286168722   -1.29886790643522
H          -0.30053824764078   -1.60847904656398   -1.21392866019634
H           1.00537209485864   -1.57065214917302   -0.38043557343951
N           1.36312776751932    1.00016602646492   -1.66454478973410
H           2.06540061663406    1.16633275072431   -2.37650593182905
H           1.07690685000568   -0.02767830783021   -1.64037056225739
H           1.75500304710516    1.21011925298058   -0.69531079906915
H           0.50887818019647    1.59099082407211   -1.83157523234880
