    26
        -50.46928901  Gyration_radius:  2.43233394736 Dipole_moment: 3.568
 S           0.07324788368480    0.80680199630812    1.90082544992828
O          -0.11666038661975    2.10480310566883    1.27751039534521
O          -1.16288965397345    0.15799160991712    2.27093833981541
O           0.94342089108435   -0.04443151059242    1.08991594800236
O           0.88591227257089    1.04554190034394    3.24186067874886
H           0.23653115461993    1.39043505797722    3.84678935738589
H           1.32455212182797    0.96952558058773   -0.16949379251874
O           1.38730489331503    1.53583918395802   -0.97183712517263
H           1.13607531057959    2.40482461803076   -0.64470890355499
O           2.33561015529415   -1.35067598991755   -0.96648269174717
H           2.63257297942901   -0.53554455382113   -1.37892682539556
H           2.02118378266098   -1.09610894307032   -0.08774427425641
O          -2.23023518719355    1.18070993779291    0.03079161835506
H          -1.55478847406015    1.79001872634845    0.39339345260122
H          -2.33292674118641    0.55346813145541    0.76084113698531
O          -0.66709910951497   -2.20906987823622    0.90799761195003
H          -0.01668175853848   -1.50061965953878    1.05617058978082
H          -1.39413919854121   -1.98349078543958    1.49328929192384
O          -0.12075378564940   -2.19702605788742   -1.71826767879550
H          -0.45289301890315   -2.41332273850744   -0.82382483615342
H           0.84581459925683   -2.09991770198521   -1.59199714102706
N          -0.76515562661339    0.30330193751315   -2.00699605577168
H          -0.55487706249196   -0.75950013167153   -1.93864295772543
H          -1.10390672342107    0.54720428420213   -2.93101615520676
H          -1.46739449805907    0.57631836660151   -1.26581992530264
H           0.11817520042867    0.82292351394052   -1.77456550818763
