    26
        -50.47224874  Gyration_radius:  2.47107313224 Dipole_moment: 4.184
 S           1.32704563192315   -0.52480248552639    1.43392518683412
O           1.47641975174194    0.84429976137014    0.95757870391655
O           0.57928128711960   -0.62837508754151    2.65918365007231
O           0.79643588515575   -1.38979967445353    0.37683027741685
O           2.78751519310151   -1.05266795123874    1.73392069837548
H           3.26543777283548   -0.95001930423704    0.91194967666951
H          -0.95888585126586   -0.19116954221740    2.48199210667029
O          -1.88653179510528    0.10009797969614    2.28759259341520
H          -2.33913440817652    0.10885013421781    3.13271592633424
O           2.44507384666768   -0.23048222687490   -1.25639539688726
H           1.84400459103876   -0.86057821874851   -0.80339602495627
H           2.37129252759580    0.55877067833813   -0.69788861527689
O          -1.81873072259131   -1.44494470868367    0.00403208035501
H          -0.85992260953045   -1.61430838587119    0.13182485567416
H          -2.09755496517700   -1.02968635816294    0.83727080110687
O           0.61916017173034    0.20432404741519   -3.14131174920532
H           1.38606131754274    0.11462518525601   -2.52290240328286
H           0.61318367401175   -0.59814803563840   -3.66554117402849
O          -0.84911614789538    2.03034719611903    0.61066441832710
H           0.07744426713779    1.73885131555833    0.76241832682202
H          -1.36518885560421    1.55082683668544    1.28079584033680
N          -1.49431088254370    0.66021249713992   -1.52848918490568
H          -2.30281703963067    1.00437680530692   -2.03430862997843
H          -0.68709503672959    0.51747646848113   -2.18228819096262
H          -1.21835889912977    1.33900100425575   -0.74732489365928
H          -1.71070871425285   -0.25707791064307   -1.02284889919733
