    26
        -50.45937183  Gyration_radius:  2.47414914973 Dipole_moment: 5.136
 S           1.02008572658307   -1.48376447290510    1.45997897992681
O          -0.00380772032611   -0.59062357505261    2.00158436444807
O           1.52128224064550   -2.45934924073120    2.37226732884052
O           0.20100675065345   -2.37307539116051    0.35184920710467
O           2.00005682115553   -0.74828531425000    0.68460274636479
H           2.06724983033940    1.27347743893854    1.42794105199521
H           0.21883737090093   -3.18506932301746    0.84648384549717
O           1.23504303012326    1.69346486266522    1.67305214508682
H           0.67329589860061    0.92927815508390    1.92659176255496
O           1.70184508316458    0.35358585116530   -1.68902714413074
H           1.95775167206813   -0.07211354202040   -0.83810202140984
H           1.31095068494576    1.20997449814755   -1.43667941544559
O          -2.43731023863854   -0.36145383228852    1.08532538042528
H          -2.94362358722485   -0.03933901167813    1.83222866524701
H          -1.52157919157107   -0.49710129929572    1.42441241325063
O           0.22974801883609    2.42331996232779   -0.62019336494948
H           0.30960588863022    3.37406215347180   -0.70330631632103
H           0.56568436912718    2.19304224926165    0.29300459570977
O          -2.03135727268657    0.96965496235632   -1.18115985644178
H          -2.31435036900218    0.57288401977513   -0.32682669305791
H          -1.32134471404525    1.60314265143554   -0.96506541232504
N          -0.50185915122016   -0.98361520753869   -1.94752961333249
H          -1.23203465406510   -0.21703443529589   -1.72301160961066
H          -0.72066399838701   -1.48288466130833   -2.80176099428198
H           0.45149795694906   -0.47495476795306   -1.99918927307430
H          -0.43601044555762   -1.62722275016783   -1.14747074208408
