    26
        -50.47200635  Gyration_radius:  2.49880972561 Dipole_moment: 3.926
 S          -0.07729321132801   -1.62118002516892    1.48072981709506
O           1.12200940201852   -1.24135794010422    0.76674022954406
O          -1.22192149412976   -1.79953098085512    0.58920040573263
O           0.21696515848658   -3.04800550256972    2.10348222270620
O          -0.39824763123912   -0.75208631955201    2.59644366857968
H          -0.50442729613063    0.78579062395708    2.19466334279487
H          -0.51373801618581   -3.15828428278874    2.70255657742186
O          -0.59411387090307    1.71533180590651    1.85326673279969
H          -0.89154318020983    2.24114692532558    2.59757615233072
O           1.85690526289071    1.33899764590297    0.62099928720308
H           1.76653682716307    0.37045581000907    0.69543609455136
H           1.07665099026001    1.68859543028362    1.07967820598425
O          -1.99757134749108    0.60794725836350   -0.21173336010369
H          -1.59589395919510    1.17574417804251    0.46998964629514
H          -1.87402803465521   -0.30770121412193    0.11959193765558
O           1.62695951543162    1.97549380852443   -1.90291905144045
H           1.82495034133424    1.72079558285017   -0.95888917626693
H           1.58183227675980    2.93230346721874   -1.91213420422126
O           0.25218390940554   -2.10549910561187   -1.56779777274104
H          -0.48938324370756   -2.21843952566385   -0.94042864136636
H           0.98685553603251   -1.92183604201143   -0.95867354335055
N          -0.43350923709765    0.33508786121438   -2.30872140039539
H          -0.09569434389466   -0.66207586340694   -2.13982610890273
H          -0.88607335899813    0.40947440607461   -3.21278384948174
H          -1.11967026818051    0.54192448901344   -1.51788279276959
H           0.38125928349942    0.99690751915938   -2.23856442959861
