    26
        -50.47723507  Gyration_radius:  2.39975692491 Dipole_moment: 3.762
 S           0.09122216916923   -1.61612703282824   -0.61541056387945
O           0.14501749846466   -1.31759815497066    0.82224021156521
O          -1.23065588591191   -1.99272371010876   -1.04344936360076
O           0.63601549814896   -0.50230341897269   -1.38398761294885
O           1.04015605642661   -2.84313523402749   -0.84545942435721
H           1.86579661898099   -2.56066216387133   -0.42798545604999
H          -2.30494936682711   -0.82828148785526   -0.74421392306984
O          -2.90161300740144   -0.05810041953411   -0.56018532389052
H          -3.78300334341832   -0.34790059693288   -0.80183731187855
O          -1.49737573291403    0.54052706888474    1.73768327113932
H          -0.90555892923825   -0.22211860443402    1.56228910739835
H          -2.21474085693091    0.42872637473595    1.09185048287696
O          -1.02216589105168    1.55319322625225   -1.75982100231331
H          -0.39117803812271    0.80894226987936   -1.84764641609097
H          -1.85227250425131    1.13345697860756   -1.47632054315157
O           2.29819924101706    0.99604437360660    0.00858124520097
H           1.78310315610984    0.46305319976326   -0.63745565823422
H           2.75362411824269    0.33716122018990    0.54547464546118
O           2.68138613709875   -1.63445403751551    0.99961875018513
H           2.94658883277263   -2.18412067815000    1.73931319222115
H           1.71347816524708   -1.46352304589381    1.10607355792396
N           0.03704483384354    2.29570628999812    0.52539920935067
H          -0.56713187917648    1.68837049232076    1.15979586700492
H           1.00304349244402    1.87805058027211    0.46909263363645
H          -0.38826622883552    2.18440163499130   -0.44782186298336
H           0.06423583618256    3.26341485566890    0.82418229847378
