    26
        -50.46227319  Gyration_radius:  2.47711419575 Dipole_moment: 7.576
 S           0.87135480350278   -1.63766556219623   -0.56935398227734
O           1.43830169713938   -0.36324539532421   -0.10553090495810
O           1.53894760015725   -2.79364761383046   -0.07473707144276
O          -0.58285219634555   -1.63184318025640   -0.29728571096505
O           1.00513275506587   -1.60173995657093   -2.13762375370666
H           0.68449579738091   -0.71914474440456   -2.40318499176494
H          -0.26935384280641   -1.89091868043714    1.37712237090681
O           0.18345884966956   -1.91003894361120    2.23879631140015
H           1.02034323064220   -2.34080890337092    2.03854202971592
O           1.49405195867305    2.32807759529123   -0.99071522439631
H           1.02481687312993    2.07159505680393   -1.79310945360020
H           1.93997878268466    1.51840853147450   -0.70866416961816
O          -0.29033231116946    0.45599317309568    3.38935001832528
H          -0.99869461981931    0.28805052546741    4.01221421459505
H          -0.00981314559520   -0.42768055291056    3.05655885414131
O          -0.15236209182710    0.77908895382523   -2.78126434916925
H          -0.48879700376815    0.71133687653963   -3.67686241181706
H          -0.92171033258157    0.71365142275366   -2.17611920078251
O          -2.05498285984229    0.32840794641993   -0.92577155061831
H          -2.95114217305650    0.01392035745994   -1.05246074658318
H          -1.51060906145064   -0.48750119033852   -0.68216134899949
N          -0.22129379359320    1.34942835239860    0.87358368165026
H          -1.11481874659888    1.21360092833241    0.38521980546077
H           0.23168336062785    2.21756254638691    0.56698742537931
H          -0.31296804657140    1.24099977394584    1.90604477068648
H           0.44716451636718    0.57411269305350    0.53042542844760
