    26
        -50.46060878  Gyration_radius:  2.58737421921 Dipole_moment: 5.774
 S          -0.40801990669168    0.54701805883417    0.13627829845644
O           0.76573228931238    1.18427874752676   -0.66196145126886
O          -0.11639283126264   -0.87473603593134    0.27885067333227
O          -0.36301764983920    1.18009056030839    1.46959795924111
O          -1.64783151569783    0.81215252515020   -0.55966453805551
O           2.32770160685736    1.09518442777171    1.64456360853072
H           2.66332234694522    1.32794170244509    0.77538494996147
H           1.37383306355394    1.29520838215091    1.60034512649686
O          -0.56580602291831   -0.53148981887408   -3.99122865526934
H          -1.14736560558114   -0.67741797338736   -4.73880503335280
H          -0.96838225694361   -1.01468442720069   -3.23095576157801
O          -1.72016501660479   -1.53589269963356   -1.80358045990542
H          -1.98892774405942   -0.67861235120799   -1.42618341184059
H          -1.03644688014614   -1.82340610518355   -1.18442254401363
O           1.79698183953821   -1.50182549016096    1.95456141063035
H           2.29388224111646   -0.65664190690186    1.88836910332180
H           0.73221721126927   -1.08409473504731    2.89517399005364
H           1.19339843867676   -1.47321867180532    1.17641479459862
O          -0.50901219576265    1.84527854991799   -2.75350631169732
H           0.38189284299706    1.50811607310992   -1.54106382200702
H          -0.44328311722291    1.04899168612225   -3.32974359576296
H          -1.29325359167538    1.70468475149674   -2.20060039428948
N          -0.13725604544447   -0.56532195946133    3.34214746442965
H           0.08692030523702   -0.14776189637792    4.23964262617995
H          -0.93445604433777   -1.18858750816128    3.41561421033428
H          -0.33626575130742    0.20474611450830    2.60477174347283
