    26
        -50.46885583  Gyration_radius:  2.54402090358 Dipole_moment: 1.928
 S           0.90034899608587   -1.05575341478105    1.46892249236220
O          -0.14988326630128   -1.43875957384542    2.37615236962074
O           0.67678749316409   -1.46565944216134    0.08985544035600
O           1.22634382508735    0.36802565928829    1.54334608504449
O           2.20435326878501   -1.83575996031748    1.93236704028602
H           2.05812710122121   -1.98083638880467    2.86176618085784
H           0.00448688618704    1.40549583943241    1.31745229646975
O          -0.75161693526481    1.96630603076586    1.01137778696172
H          -0.50696526475840    2.87421535541334    1.19666613019748
O           2.71689955013132    0.13670144983263   -0.67637982016197
H           2.40062725719588    0.49227311447340    0.17092617500031
H           2.33148374150660   -0.74969129171455   -0.68843301216893
O          -2.38186776647552   -0.34681403953730    1.33930008454714
H          -1.66444355844163   -0.85525237400376    1.76295417946734
H          -2.11997614207044    0.57803437710702    1.41777084464195
O           1.42012000035935    1.26183339287508   -2.72889085398144
H           1.84755480074640    0.99017521311621   -3.54163273230091
H           2.00085814692394    0.94907401616925   -1.99408058447163
O          -3.01703605796090   -0.82388717624424   -1.21206308633507
H          -3.03677532291351   -1.77423135397694   -1.33358200752379
H          -2.94593218407969   -0.68015801149470   -0.23928635150075
N          -0.65110902297757    0.40826784190986   -1.24138347606372
H          -1.58029643257299    0.02019080211112   -1.51709382482029
H          -0.06191804038497    0.76210034350266   -2.01961279549100
H          -0.79321383805191    1.15866641934991   -0.54090523372639
H          -0.12695723506995   -0.36455684869077   -0.75551334737939
