    26
        -50.46544123  Gyration_radius:  2.54203113083 Dipole_moment: 6.102
 S           0.27564087268533    1.83514386741140    1.25332250383070
O          -0.67686934109242    1.54511876270176    0.18728150343000
O           1.05773259519245    3.01647687972537    1.02259214782990
O          -0.59372724332105    2.11277404187616    2.55708360070484
O           1.06226567678015    0.64565071242622    1.57778582317516
H           0.51649835192818   -0.80527767621401    1.41633626522821
H          -0.71219121623694    3.05589421509624    2.51672127845242
O           0.22356205063850   -1.74940431334753    1.26634471834435
H           0.69203388799480   -2.26904045052645    1.92110181718832
O           2.84457361652512    1.42372008848642   -0.25718057802879
H           2.44615011522808    0.95636037726624    0.49564481528011
H           2.62779799973449    2.34638587866406   -0.06736133753870
O          -2.26288282013780   -0.54505279915231    0.59800768906214
H          -1.80048421983882    0.30533840327345    0.44386579588235
H          -1.61770945659429   -1.09309992141764    1.06273419140650
O           0.81240873024408    0.80979070089907   -1.86096997497717
H           1.68583583650299    1.03030469139211   -1.46222654058276
H           0.15941074776920    1.20350326866235   -1.24318315982820
O          -2.40246111660325   -1.79295397019527   -1.70966320515466
H          -2.48831927617353   -1.23968730225239   -0.88742292220177
H          -3.02413789302325   -2.51488284074509   -1.61255722434495
N           0.24847953021511   -1.68134739192557   -1.45197034219729
H           0.83700841753898   -2.32940453020066   -1.96279747600420
H          -0.76490176040126   -1.80643018103616   -1.69896711638128
H           0.33746177800431   -1.81175363065644   -0.42235055925644
H           0.51682411644365   -0.64812690021075   -1.68217171331719
