    26
        -50.46736866  Gyration_radius:  2.43156716286 Dipole_moment: 5.869
 S          -1.38839780875957    0.91145562963211   -0.38922107615131
O          -0.48192161842232    0.90156165286370   -1.55314085754874
O          -2.75200767528609    0.62847360774949   -0.74806746144604
O          -0.89203650281517   -0.04337639004973    0.61400308815235
O          -1.31043112922676    2.32303155391804    0.24764855798038
H          -0.34950707721541    2.56426764789321    0.20750567653583
H          -2.45167115799042   -2.21521962463236   -0.03135625076922
O          -2.53727957572192   -1.97689192209283   -0.95763509785125
H          -2.77026910358168   -1.01704224627908   -0.94683163728020
O           1.19468720972451   -1.65319620430233    0.28424914744865
H           1.93757850357283   -1.06053001793034    0.46423381706912
H           0.40522165872089   -1.12799435068110    0.53921461219664
O           2.59191032950073    0.58603387690752    1.25836117843994
H           1.85133626946020    0.63201842667728    1.91018102237781
H           3.36323912730715    0.94730803782797    1.69736552469184
O           1.24072543096813    2.46250872047585   -0.27261612048627
H           1.78734272948620    1.83989376087659    0.24112370721176
H           0.88026299904268    1.95000661834415   -1.01432427908333
O           0.41180416823481    0.69393154343037    2.77198386819322
H          -0.18029763112423    0.51828471301649    2.00563443376627
H           0.17980732093394    0.04554314156895    3.43886025570370
N          -0.12840276668470   -1.61158281184228   -1.98899181866802
H           0.14255462407394   -1.97949045620448   -2.89365554848486
H          -0.22557168939114   -0.54646076100196   -1.98327367175858
H          -1.08275378481739   -1.94852949878306   -1.67910904524577
H           0.56407715000695   -1.82400465738805   -1.22214202501903
