    26
        -50.46728131  Gyration_radius:  2.43666666282 Dipole_moment: 3.884
 S           0.06499034965292   -1.15394557928336    1.40743120454731
O          -1.25176087805865   -1.70490920443034    1.13439038697848
O           0.93669286970361   -1.15797675507967    0.26129342812822
O          -0.03671568606311    0.15830859719263    2.04411801710651
O           0.73425001882992   -2.10987953490852    2.48354468152336
H           0.08111859506724   -2.16280362522354    3.17483381251317
H          -1.07500366080437    0.68827432203033    0.90629658399205
O          -1.72464399206111    0.93924284254622    0.20802882894708
H          -2.53725919882218    0.50509004747825    0.47962767325486
O           1.55657172178014    0.46097735797408   -1.82730317448941
H           1.39234953035915    1.35931865854334   -1.45516787635181
H           1.64757762765894   -0.12118751458246   -1.05247343835224
O           1.86105701443615    1.98976660250965    1.73846708637217
H           1.23799273000242    1.24730952255275    1.88057694079662
H           1.83022153019235    2.52229704052889    2.53464340232811
O           0.62193392290098    2.62494721512430   -0.57795575723552
H          -0.26906061971928    2.37192328407001   -0.31676152336582
H           1.16633551604640    2.54148334749202    0.23086590767149
O          -0.81200412533869   -2.69703086208650   -1.24196386508322
H          -1.10282383733874   -2.44279536451050   -0.33473973013399
H           0.14218710362028   -2.79164135109194   -1.15525351570842
N          -0.91811160635235   -0.20834037286362   -2.13511316406871
H           0.13246696180126    0.07324127654750   -2.16743753637259
H          -1.40886345755649    0.02335507012582   -2.99094352852743
H          -0.95176989579128   -1.24636756666656   -1.91749895296194
H          -1.31772852414175    0.29134253606195   -1.31150588148060
