    26
        -50.44674356  Gyration_radius:  2.51001710963 Dipole_moment: 6.847
 S          -0.13117957927524   -2.26159571188593    0.79804783874108
O           1.04589397330611   -1.47050276191743    0.53022071163576
O           0.06305683635621   -3.51933068069648    1.41460345330462
O          -1.09767475081224   -1.35863523335450    1.63940388972581
O          -0.93560203807548   -2.44674960390072   -0.50347757831078
H          -1.04918289096201   -1.57225518133619   -0.98376433785357
H          -0.47098162369954   -0.86159414835346    2.26677975893668
O          -1.33261085370780   -0.26177029857733   -1.81909418617059
H          -1.91259490487531   -0.50127597282795   -2.54401617380828
O           2.02546156624559    0.94069900757856   -0.31779142256434
H           1.81691466920866    0.03219842266103   -0.04745645120265
H           1.49222572476080    1.50950990909454    0.25487149023167
O           0.72145479489467   -0.08582558624847    2.86065877751265
H           1.39061980794338   -0.52530208115903    2.31987631524991
H           0.61161007447557    0.80930519490007    2.47070308977965
O           0.18352968731575    2.15066880155650    1.44885556650632
H          -0.01328211353403    3.00390586656986    1.83720364174489
H          -0.66650758520073    1.80989561961485    1.06591554258235
O          -2.01154131555081    1.03320172140929    0.50119865912544
H          -1.84088953364126    0.73246502234957   -0.40711607127817
H          -2.03442816348027    0.22420465344495    1.03043574659980
N           0.89237776189748    0.55535046747167   -2.84032898016672
H           0.87391781205990    1.37603072214459   -3.43210351885830
H           1.41180253458670   -0.16879276786091   -3.31977398404301
H           1.41366692303688    0.79170414113033   -1.98495468577957
H          -0.44605684327221    0.06449047819125   -2.23889708164096
