    26
        -50.47019812  Gyration_radius:  2.43795323673 Dipole_moment: 2.383
 S           1.78379557803170   -1.22998781854757   -0.26038658572435
O           1.45952752382958   -2.33887791201366   -1.11122739766768
O           2.12242746330904    0.00224660110207   -0.94209089556078
O           0.74370600421520   -0.97330051499116    0.75352462772067
O           3.06741471443636   -1.66540759622401    0.57451080661454
H           3.28294089789021   -2.51053332856144    0.19348460048570
H           1.06334233609784    0.61470221770806    1.09388736515213
O           1.20807061716554    1.58726999954660    1.10742853733334
H           1.95840047950063    1.69606388638728    0.51346149121182
O          -1.17675976565950   -1.50589568833696   -1.01313951462529
H          -0.90166155965678   -2.31675982665981   -1.44957934501193
H          -0.50071860160957   -1.37268893466298   -0.31902956753504
O          -1.13163464361078   -0.33179324566093    2.60997276126967
H          -0.45251838592403   -0.74286199833813    2.05074769470615
H          -0.69158145171936    0.38717951848178    3.06820312482565
O          -0.02603369863743    0.57193393793092   -2.38062565385719
H          -0.54270682612025   -0.22757088450061   -2.17145733008810
H           0.86906491830978    0.39007343189319   -2.02210722373013
O          -2.68799108727531    0.30253495149526    0.50276885478748
H          -2.29878093263959    0.05241973988768    1.36797492338972
H          -2.48859438055835   -0.44018387295538   -0.08554473464866
N          -0.94209454822153    2.04329376434333   -0.41470896928368
H          -0.60342982674747    1.57120950024744   -1.31331437633016
H          -1.25679280813519    2.99163211414841   -0.58291463948507
H          -1.72743038637987    1.43123473795687   -0.02613701359132
H          -0.12996164991437    2.01406721032101    0.25629844963932
