    26
        -50.46899360  Gyration_radius:  2.47687946905 Dipole_moment: 2.956
 S           0.18028088691807   -0.84538503594487    1.90980857864882
O           0.61732995583298   -1.94625538323709    1.05518796738220
O          -0.78519794759113   -1.22321474980969    2.89882057261107
O           1.49752889996676   -0.36417101000706    2.69480866188766
O          -0.19174065866220    0.32034844338471    1.11826069537016
H           1.20723617327858    0.81042157300021    0.51385885047611
H           1.52125558835315   -0.93130193905324    3.45948383930605
O           2.05190151834108    1.06031516510152    0.06091662987505
H           2.71549322339460    1.06211839471515    0.75255639955112
O           1.12768464161812   -1.10176115461254   -1.39824148473197
H           1.02366612633775   -1.56787606623432   -0.53871090814209
H           1.63333748178387   -0.30780184496500   -1.16447807746771
O           0.81753773935176    2.90076438409226   -1.53232366137340
H           1.36132571866985    2.35335166632023   -0.93591053878221
H           1.18230360761280    2.79166672358802   -2.41150953131324
O          -1.54277921310037    1.89799314420689   -0.61650369564588
H          -1.20837525313083    1.54699480456129    0.22514706410658
H          -0.79946432424081    2.41497920727176   -0.98501080117699
O          -1.97730613236126   -2.10485205833024    0.55126241234754
H          -1.03745022807026   -2.33552387400274    0.67213753108587
H          -2.22635183910064   -1.74973887620506    1.41206594260985
N          -1.45050583077255   -0.53813523729133   -1.57751034146510
H          -1.56777250250754    0.48734911266364   -1.29389438962605
H          -1.92791992174979   -0.75637824163004   -2.44468763235668
H          -0.40779226776642   -0.74713585126896   -1.63640394550092
H          -1.81422543276185   -1.12677128632404   -0.78913011774958
