    26
        -50.46488474  Gyration_radius:  2.54045563592 Dipole_moment: 5.625
 S           1.11484667843771   -1.17148664105330    0.15154376593146
O           0.11266964764095   -1.27843716504981   -0.90824253765203
O           2.04883328929284   -0.09939822249121   -0.09842347247184
O           0.45288508052169   -1.04238039823033    1.45650767640365
O           1.92572262876607   -2.50254842191296    0.16996515607320
H           1.27817269180956   -3.15616938200843    0.50045797849458
H          -0.35679070053210    0.31515402173024    1.71973209938112
O          -0.82078955897555    1.17295925322883    1.90916583885312
H          -0.92671506586732    1.19947343930857    2.86173205917028
O           0.89953692817449    2.27546986819678    0.02061251861214
H           1.51053213445293    1.50690982873763   -0.00051915065742
H           0.39510058407912    2.16837850113342    0.84126785079238
O          -2.84124520934287    1.67406056614150    0.13729530233260
H          -3.16234553340444    2.55191958916304    0.34881357420556
H          -2.20503108772849    1.43351008450214    0.84011939424377
O           1.40499466842230    0.07906544817006   -2.92775447746527
H           1.02618241991389   -0.63591089019192   -2.39658052383710
H           2.16722537272618    0.37143047973856   -2.42128172732319
O          -0.05860589197678   -3.61599629822407    1.51647135949751
H          -0.10901318582594   -2.64527757313436    1.62878829586334
H           0.18506984994861   -3.97966054916950    2.37076655320134
N          -0.83366645307589    1.08824756285257   -1.56856599878441
H          -1.77775029017032    1.30467689119741   -1.19906600939687
H          -0.73618900012507    1.19293552417139   -2.57537704360990
H          -0.12259134264199    1.69939313732342   -1.05983346359093
H          -0.57103865458697    0.09368132592396   -1.31759502826875
