    26
        -50.46891502  Gyration_radius:  2.43221063146 Dipole_moment: 1.417
 S           1.06959036235092   -1.41241815459094    0.50748132779602
O           0.21028816269668   -1.68826062095230   -0.63655150638003
O           1.98192795948421   -0.31550087224776    0.25285579577847
O           0.29864812295502   -1.25126791293371    1.72628143375109
O           1.97458415912012   -2.69319178937794    0.70569879546031
H           1.33697815681678   -3.38758524171242    0.83443885645389
H          -1.24516400496262   -0.75871127341634    1.45677793395440
O          -2.15223223510952   -0.39693935995074    1.31542138001249
H          -2.66290257517527   -0.64099491583516    2.08864441589461
O           0.98133464834911    1.48583573244256    1.93115481473847
H           0.65218577972486    0.89400540195075    2.61321845811786
H           1.48130310459040    0.89946601299089    1.33178474103887
O          -1.15393835255915    1.96660348097107    0.38947727790686
H          -0.36603783823240    1.98283500514158    0.97862581280831
H          -1.72535464389647    1.26895931893068    0.75583399242374
O           2.33592765237547    1.32894757839725   -1.83307536039439
H           2.38342563012405    0.66060240918539   -1.12017345490356
H           2.68336930805381    2.13899455568833   -1.45489776715274
O          -2.44075593228816   -1.07595559491272   -1.44258165110242
H          -2.63355562416247   -0.78645134582680   -0.54139597544644
H          -1.67365644351669   -1.65155276788074   -1.34928273164108
N          -0.26963146093450    0.69822574902285   -1.72818846488720
H          -0.95432658965760    0.62629860110162   -2.47686454945483
H           0.64825258348813    1.08604382812409   -2.02950401936493
H          -0.66742968034694    1.28852167275198   -0.92417473661583
H          -0.09283023932174   -0.26650949703537   -1.35100480885753
