    26
        -50.46798958  Gyration_radius:  2.52114325634 Dipole_moment: 2.270
 S           1.19956909487200   -1.72319185931587   -0.45645009723740
O           0.76650977501307   -2.56273019549704    0.63307475066865
O           0.12520885108392   -1.35436178946925   -1.36270420372848
O           1.94960670342319   -0.54545318049060   -0.02728924757327
O           2.23180247685334   -2.59044057219565   -1.29391092256857
H           1.88088236159222   -3.46083924499225   -1.14198265344760
H           1.30656356591163    0.34681839235450    1.15672644010021
O          -0.05784815553676    2.55866433600909   -0.17038622336410
H           0.67583047627601    2.38912316096454   -0.79351611798422
O           0.85388825086712    0.91009080090659    1.83342471003294
H           1.48860358862007    1.03924604119028    2.53991798400174
H           0.22331276439010    2.14946256992245    0.66678390838923
O          -1.02767611980265   -1.12834813750936    2.00116793080718
H          -0.46001114655944   -1.78100238986947    1.54669609598918
H          -0.46952397744102   -0.34125629423885    2.10485078938103
O           1.79658667353552    1.44146558024649   -1.76872898818090
H           1.85703614941509    0.64392391572735   -1.19970305850471
H           2.68488959472643    1.60992711796858   -2.08499544350326
O          -3.18484362376058   -0.27345651974997    0.78358529285982
H          -3.59706472531161    0.30213436212756    1.42962379628721
H          -2.43820076074342   -0.72371216436858    1.26083922544116
N          -1.57619354838129    0.62891894172893   -1.14276648692926
H          -1.04486777912965    1.47304443688999   -0.76822724653489
H          -2.30283640002043    0.31969209366669   -0.44771973093674
H          -1.99651863461111    0.83723439455651   -2.04155850372037
H          -0.88470544528505   -0.16495380655788   -1.25675196975118
