    26
        -50.47007294  Gyration_radius:  2.45462796071 Dipole_moment: 3.590
 S           0.70319521398541   -1.52193313836305    0.35609560854485
O           0.27355738037929   -0.46066269925127    1.29274254965056
O          -0.12392327823347   -2.68837516527529    0.45808872837330
O           0.70624027800692   -0.96847885448146   -1.00996562039940
O           2.16363500522910   -1.88357462660918    0.72275418954829
H           2.61693577987339   -1.01423537686758    0.89186076032374
H          -0.78926139326955   -1.51241321646709   -1.61880172267554
O          -1.69135012338306   -1.89946356037144   -1.59653029615914
H          -1.53754434216128   -2.77455297967769   -1.22083890375336
O           3.01826566431467    0.54834800914159    1.09037918395769
H           2.35930093514674    0.85596376983495    1.72000561322005
H           2.78310685374599    0.95002809712021    0.22887961396956
O           0.13683022044367    2.11567591024015    0.59141439778151
H           0.73131754231107    2.14167029419310   -0.17030568602896
H           0.20271903319146    1.19988562129145    0.93280467569255
O           1.97350888029045    1.25881245357088   -1.30666596141771
H           2.48780765705297    1.22641046697833   -2.11442073020649
H           1.47448463110425    0.39859006752120   -1.26030054423071
O          -2.41297255889570    2.05897746589421   -0.07551592941542
H          -2.44030091721033    2.26130204297245   -1.01224070370764
H          -1.48205039888856    2.23603503149121    0.22106330899529
N          -2.25811246087140   -0.50923644916879    0.58856229311951
H          -1.29101177229751   -0.53062991439838    1.01949268875679
H          -2.47465768962540    0.49686006856163    0.34338018394394
H          -2.18740023797223   -1.08809932552146   -0.30123457535513
H          -2.94231990223322   -0.89690397232247    1.22929689748577
