    26
        -50.45935999  Gyration_radius:  2.56436423187 Dipole_moment: 7.863
 S          -0.77984823961329   -1.26884770742561    1.32548549451117
O          -1.65279862652808   -1.41955680942928    0.15985016987395
O           0.17883882646871   -2.32798899120117    1.46726814556093
O          -0.10776143158195    0.05277327835425    1.25659029361766
O          -1.68169994858812   -1.22956380804400    2.59486509895742
H          -2.41311981795455   -0.62635028885679    2.33445735227224
H           1.40841654165513   -0.34842984120527    0.87857833706810
O           2.15706235023901   -0.88238809235652    0.50883802635462
H           1.91523581073666   -1.75903615943150    0.84919346053836
O          -1.43148297159809    2.03272459704116    0.26342002087694
H          -1.12498989459802    2.85538157841489    0.64621358650284
H          -0.89986292784485    1.30957321800194    0.69211629842306
O          -3.38205488585866    0.27948024392612    1.25760740880570
H          -3.10116456095166   -0.39962692595716    0.62133939761612
H          -2.95055420788716    1.09466913723685    0.95750944314336
O           3.41256748736043    1.19465997609265   -0.98526377934314
H           3.87058696635768    1.94063436065515   -0.59667764789231
H           3.26998141776849    0.55310344545090   -0.27472660159228
O          -1.09515586526838    0.20971676224185   -1.77681978171112
H          -1.25876468388805    1.04354020623253   -1.30589126933686
H          -1.36818605085861   -0.48741656257258   -1.12342329423096
N           1.41201615424659   -0.36996054790487   -1.97748275446185
H           2.02086133474458    0.44380157902759   -2.11284430241615
H           1.56304175775142   -1.06207986797297   -2.70352221070951
H           1.68078076825019   -0.75006316322853   -1.01929291959235
H           0.35805467743624   -0.07874960709204   -1.93738794284447
