    26
        -50.45377589  Gyration_radius:  2.57097146798 Dipole_moment: 8.603
 S           1.81385872786445   -1.58974436408808    0.97163035698778
O           1.07799960443101   -2.33075376834606   -0.04168691938337
O           3.04101953627013   -0.99766383746776    0.52650448595571
O           0.94178436479057   -0.59379676024121    1.61939969914355
O           2.15809298698811   -2.65774518052083    2.10106590115813
H           1.40799316187173   -3.24389355637295    2.06251542080329
H           1.46581165757516    0.67450002074382    0.82158339950398
O           1.76161813550083    1.39687325613009    0.20545311378547
H           2.72027877902533    1.34700519587010    0.25144760643734
O           1.09699695018517   -0.43017372419147   -1.78294653711258
H           1.10503090032617   -1.25869856309681   -1.23530800245061
H           1.56740189009310    0.22164795908110   -1.23419516720248
O          -1.55880033440442    0.25181573860641    1.58807004309702
H          -1.37250037414250    1.12814714007045    1.22768379014993
H          -0.67668560908481   -0.16395246045362    1.69575362783822
O          -0.65909129665282    2.50967623017543   -0.02819756277988
H           0.26281263266475    2.19287585895680    0.07515248099816
H          -0.64056577112687    3.45368216279611    0.13355868529397
O          -2.89699595619055   -0.95704798603199   -0.30407239611939
H          -3.83044190457172   -0.87092404840205   -0.10795133211383
H          -2.41079430670779   -0.63599349987994    0.50301577141955
N          -1.29582768573919    0.52059865746273   -1.82719460392771
H          -1.96980796754277   -0.12670593876021   -1.34348197645447
H          -1.60323878094724    0.72852476870467   -2.77053351600507
H          -1.20326511091739    1.38092981982403   -1.26298563005270
H          -0.30268424955624    0.05081685943003   -1.84428072897005
