    26
        -50.44408031  Gyration_radius:  2.51402742603 Dipole_moment: 9.714
 S           0.97301883295384   -1.82862003832003    1.43685687305767
O           0.50587469381342   -1.59269960353248    2.78408472894585
O           1.66743502500469   -3.03997675525852    1.15766337935123
O          -0.38871883711770   -1.89473682258471    0.51726983902096
O           1.64606760604929   -0.64478923657650    0.87043125703922
H           1.30712552213532    0.70037838317058    1.48072610408548
H          -0.96059748062307   -1.22765784371822    0.93798927406955
O           1.02436693660728    1.64540802334152    1.71305862657288
H           1.65757711795572    1.95564089525190    2.36101002445160
O          -1.94834296232741    0.96549708284905   -0.62301459463339
H          -1.98632133242725    0.65314578540887    0.29210792437687
H          -1.13453717161537    1.48043739246813   -0.69701294495779
O          -1.70337747023485   -0.43560097003665   -2.88441141273659
H          -2.03209336608049    0.10368646183291   -3.60464928256307
H          -1.99732531548530    0.00029536439170   -2.05297151099268
O          -1.27041032107454    0.14706141621657    2.01775377746677
H          -0.68782565229539    0.92346770163299    2.00919385457823
H          -0.76698796707759   -0.49448925252777    2.56959534801370
O           0.76054000945417    1.89314818362152   -0.91115266790773
H           0.88478576488149    1.88959393247193    0.06808917045914
H           1.37486120735783    2.54048326480111   -1.25956929001299
N           0.63161692064424   -0.75136253651007   -1.66061251183035
H           1.45813781457737   -1.21163866242292   -2.02852528304916
H          -0.16904709072458   -0.71761232984598   -2.33931744841930
H           0.30117319795850   -1.27819986955173   -0.80895781254516
H           0.85300431767479    0.21914006343720   -1.34563542184240
