    26
        -50.46330147  Gyration_radius:  2.62378836813 Dipole_moment: 2.340
 S          -0.15157824735676   -1.63515765471874    2.03898656457829
O          -0.60936323033058   -2.92456970126014    1.59407765770026
O           1.15216248268240   -1.24652081162243    1.55000733917816
O          -1.13849074617035   -0.57079886614210    1.77391906285320
O          -0.03717198595900   -1.71702954575468    3.62743525149094
H          -0.65135748327805   -2.41050439257679    3.85011954743054
H          -0.86152063238942    0.93496354699641    1.33075365901968
O          -0.69553699915414    1.84636063201851    0.96889260917764
H          -1.16787970043628    2.44701629366005    1.54700633106879
O           1.92425841168304    1.09234474240988    0.69196435537669
H           1.10580599059921    1.60039120118688    0.82673430115042
H           1.78657478941232    0.26356836379463    1.20545660992328
O          -1.68960873772535    1.19762626984473   -1.52396639956819
H          -1.77724816156808    0.24373422693351   -1.41409335727978
H          -1.37611197015230    1.53014518583008   -0.66228073636946
O           0.31121723017393    1.50596755526839   -3.21634650085478
H          -0.54119838708764    1.45477647253384   -2.71297019780714
H           0.57160713326418    2.42811619331802   -3.20988438508127
O          -0.92506978365188   -1.44817767842591   -0.66768474526655
H          -0.87863492936098   -2.39102437426017   -0.47091757015939
H          -1.09553295668521   -1.06578594658729    0.22349875538095
N           1.36281166524552   -0.23693827196311   -1.48837103537833
H           0.52099377612611   -0.78296790341373   -1.18037872651920
H           1.07716830706335    0.40999705352857   -2.26574667379702
H           1.68361770261186    0.34481974844968   -0.63977181954989
H           2.10008648249640   -0.87035233904233   -1.77643989673341
