    26
        -50.46930063  Gyration_radius:  2.43449933493 Dipole_moment: 3.380
 S           0.93202944345184   -0.20871635119538   -0.82068389455306
O          -0.18637522445078   -1.05848113084455   -0.36655732553635
O           0.59575357607552    0.44351380137273   -2.06761779373136
O           1.27517582582637    0.75321282648434    0.22609155389528
O           2.14651012834688   -1.12641988850695   -1.05962402050800
H           2.43350756929844   -1.43806693292995   -0.15055082343029
H           0.46277027657813    2.14879804574726   -0.20427485367716
O          -0.25222796436594    2.72849094569139   -0.55177511266331
H          -0.11105117375105    2.73378118163175   -1.50320311075778
O          -1.91904749098871    0.36465237713537   -2.88608164156951
H          -2.05072320281077   -0.47236781218972   -3.33368400510010
H          -0.95169669890419    0.41374691367401   -2.69866287495944
O          -0.34738328696762    0.71656726507647    2.32102432626551
H           0.29150421400269    0.73262640078621    1.57519940891965
H          -0.00467378264008    1.33798230323470    2.96486402138426
O           2.70433152647293   -2.01648082521516    1.29994937310613
H           1.80664869580063   -2.01328589994573    1.73065819161103
H           2.96934775430408   -2.93698217817958    1.24234409163428
O           0.20183750947219   -1.98260773072976    2.09631447852807
H          -0.03025765708648   -1.14211879376533    2.52289824802340
H          -0.05157166991713   -1.83614374689101    1.16398944313998
N          -2.02169786802399    0.77828540231364   -0.27619706632192
H          -1.43814903450712    1.66544460939372   -0.25780882426931
H          -2.74687215421097    0.78072782161683    0.43291489611499
H          -2.36728673010289    0.66364913023570   -1.25483378446281
H          -1.34040258085329   -0.02980773392298   -0.14469290105687
