    26
        -50.47168238  Gyration_radius:  2.41933894736 Dipole_moment: 4.655
 S           1.44429975632479   -1.07951154487115    0.51235643326217
O           0.29769840076425   -1.65273496355658    1.20700433203840
O           1.19546457072184   -0.93520248686672   -0.90487157322352
O           1.90397937127555    0.14028681711678    1.15486795237939
O           2.62948483378846   -2.11502977946721    0.65199273933687
H           2.92594006925962   -1.95789848349766    1.54180712406418
H           0.49031378296142    0.67854125591208    1.88961239933612
O          -0.38103682160162    0.92989329123366    2.25711123601272
H          -0.67680463435651    0.15288063013660    2.73555559396964
O           0.04833216639211    1.43183944125035   -1.54179812639327
H           0.58205551837132    2.11190778396663   -1.08861775621298
H           0.53212450739966    0.60351127453669   -1.37086284650888
O           1.54733618642785    2.72200639999520    0.31326487910229
H           1.00418070666827    3.03515559388945    1.04045616029667
H           1.87847734195533    1.85123178237803    0.59161188671800
O          -0.73844244593900   -1.32860389089637   -2.72266629945412
H           0.12470891582341   -1.37562642633429   -2.27335085545628
H          -0.80253276671355   -0.42177807911731   -3.03949432487386
O          -2.00622660370329    1.19120315183849    0.11492415296676
H          -1.51617801179156    1.26550781702001    0.96000221869863
H          -1.34447530868086    1.42847845560140   -0.58054513264572
N          -1.85223975248651   -1.36038587636482   -0.28859137838084
H          -2.06680612517753   -0.31147998336779   -0.10990575997686
H          -1.55464004249578   -1.45419829196322   -1.29338783179777
H          -1.02183352552868   -1.59274983264928    0.31867755352914
H          -2.64318005967211   -1.95724404589851   -0.07515277684757
