    26
        -50.44373224  Gyration_radius:  2.55764578203 Dipole_moment: 4.917
 S          -0.09225231201106   -0.99463786163141   -1.81406949740820
O          -1.34564074488972   -1.31431759546158   -1.18901253885834
O          -0.12893459753591   -0.71657713760496   -3.20980313429726
O           0.49608218125803    0.26742011049150   -1.07298533557276
O           0.94497860536844   -2.06403363882217   -1.48465129354301
H           0.88221743084863   -2.19947155068803   -0.46643245286211
H           0.14113012988893    1.06693811214603   -1.62251442976897
O           0.81770398825538   -2.20987598243249    1.02412953648862
H           1.27561205262641   -2.97637840035627    1.37504256956044
O          -0.67202566187571    1.92898374142869   -2.54235077187448
H          -0.62890839763647    1.35356674930600   -3.31686414181171
H          -1.56258821634837    1.77520389355983   -2.13491787295701
O          -2.73743204143837    0.99233330260858   -1.18966989532645
H          -2.59443193808893    1.18100692314483   -0.25367499742078
H          -2.46892906833490    0.06093811419900   -1.29137535645988
O          -1.20268632010083    0.32825410824964    1.15357512664048
H          -0.52858716866885    0.35286138236766    0.45721794391322
H          -1.47376721109017   -0.59380391995079    1.18980532756229
O           0.36849504808161    1.32718651909189    3.16952596432880
H           0.03278073363152    2.17533345552005    3.46184933982372
H          -0.29476656397624    0.96719373529037    2.55070218707113
N           2.24549287096050   -0.07721374107546    1.46824084014475
H           1.78011629942019    0.46687993644593    2.19304679957217
H           2.13441424119204    0.41674475542013    0.59019874329547
H           3.23164434694744   -0.12333710693432    1.68836852922904
H           1.38028232351849   -1.39119789430670    1.26661884054367
