    26
        -50.47020149  Gyration_radius:  2.43798630282 Dipole_moment: 2.373
 S          -0.29370009644831   -0.72642159400066    2.04042982531171
O           1.14602175180086   -0.64938206472200    1.90945183704669
O          -0.85416847880168   -2.04618425315980    1.98662979834497
O          -0.65804312422299   -0.14218869458974    3.47539007534212
O          -0.93468453266225    0.19478173327424    1.08198784258069
H           0.26398267365979    1.32469148400000    0.93254704103340
H          -1.14675480479905   -0.85717890141707    3.87016744283054
O           1.07860788933061    1.85208083896770    0.77253419985197
H           1.70598392010568    1.46294635045965    1.39096842366799
O          -0.85401544501895    0.38289000860959   -2.58557234765761
H          -1.08605760876625   -0.48646320365048   -2.22780218807552
H          -1.37243939532568    1.02336986763195   -2.05285759732374
O          -1.05331915285766   -1.72821084134151   -0.75491013342775
H          -1.39359470127532   -2.49865128135640   -0.29199299855817
H          -1.09020025057260   -1.01704835713101   -0.08429799304737
O          -1.94071297348964    1.97694868964657   -0.70348300345517
H          -1.44887695940950    2.76425803012595   -0.46067939218016
H          -1.77840214609627    1.33585050005800    0.00752907503813
O           1.66958291173235   -1.74212468100239   -0.44493185496238
H           0.76065039748433   -2.01324861723501   -0.66911617382431
H           1.62092294077335   -1.46450042894156    0.49490677618795
N           1.55442782860047    0.62832160404916   -1.55682360345541
H           0.62052295487562    0.58493468075495   -2.07486443548810
H           2.30106199237741    0.95249744004271   -2.16024565760532
H           1.44034025841526    1.24523654836806   -0.71005638151575
H           1.74286413058378   -0.35720484745188   -1.18490858666187
