    26
        -50.46514007  Gyration_radius:  2.60184816412 Dipole_moment: 0.919
 S           0.55923593862971   -1.53021955411719    1.47955324085288
O           1.04288305508017   -0.19132865963904    1.77382888696896
O          -0.86884278910379   -1.67368810743264    1.63491557909443
O           1.02068160092414   -1.98910499241085    0.17054358286193
O           1.23474944253927   -2.47807698844113    2.55703667289512
H           2.12430150785017   -2.14226455137881    2.62169921483087
H          -0.27232501038073   -1.53914094300748   -0.75990801729341
O          -1.06660069037095   -1.10482320887787   -1.14839064191841
H          -1.81150121047703   -1.56357830638482   -0.75180514602779
O           2.48481929393020   -0.30607918274126   -1.28224036836083
H           3.10237540883761   -0.86014169421564   -1.76230255520039
H           1.99051340917261   -0.90373353287369   -0.68400241007544
O           0.46557108301280    0.77143946151638   -2.72647853115184
H          -0.18754461547528    0.09296495403642   -2.52055967118088
H           1.28270599873442    0.47995220012526   -2.27160168682183
O          -2.42824231986136    0.38921202763522    2.25481153190430
H          -2.37318128755866    0.53603178141693    3.19991053006589
H          -1.94804484698574   -0.45119275176039    2.08483834014731
O          -0.18459443489731    3.03268524663035   -1.49876144108252
H           0.14403995560814    2.28530977514602   -2.05780959093918
H          -0.79641982866968    3.52891011608129   -2.04324236341120
N          -0.70629875024681    1.15434132688754    0.34255129863476
H           0.13150045519983    0.83069193031560    0.88512818935169
H          -1.48659161129528    1.21798676558460    1.02236732245527
H          -0.52609533848602    2.03106537218475   -0.19479560948706
H          -0.92709439572903    0.38278150570206   -0.32528636711252
