    26
        -50.46441343  Gyration_radius:  2.35300508519 Dipole_moment: 5.399
 S           0.45936915520704    0.08012096905635    1.80529873539614
O           1.62215325424015    0.65563979866064    1.13130945545210
O           0.30554815010808    0.48060172893908    3.16479317087427
O          -0.81398466819025    0.64745688608752    1.00146417095816
O           0.35563528936123   -1.36018003838387    1.56078608337763
H           0.79320420357489   -1.87413015177122    0.12111049282484
H          -0.63189628758962    1.59987501040499    0.97541559585624
O           0.90197281331708   -2.21354591757255   -0.81179388530214
H           1.01470625562994   -3.16163588219431   -0.72859105393064
O          -2.19445660728067   -1.64522715876285    0.98383740053082
H          -2.64871322256038   -1.02055689308203    1.55268468638921
H          -1.26229003282257   -1.64951787962562    1.30602323771503
O           0.47465879196319    2.93783407890341    0.73969328326644
H           0.63352084419553    3.56645634748050    1.44579555237049
H           1.12235248443189    2.20406772527125    0.87181932580724
O           2.07715610904284    0.25112713707624   -1.45522376151133
H           2.07850139592584    0.42965495493490   -0.49205293073757
H           1.93601899893972   -0.70084147334606   -1.52026491456712
O          -0.20847848884230    1.53260537281625   -1.78428588099165
H          -0.16529662334512    2.21227874056981   -1.10287113562541
H           0.70481414625219    1.14907094905298   -1.81628634129544
N          -1.33203804604804   -0.82306717913941   -1.40758814747227
H          -0.99544927107891    0.19007473819946   -1.47662972804324
H          -1.93383174790228   -1.05491953198162   -2.19067651288080
H          -0.48054216815529   -1.42891672947304   -1.39044358194690
H          -1.81263474840265   -1.00432560213867   -0.48332332651045
