    26
        -50.46025199  Gyration_radius:  2.63134863002 Dipole_moment: 4.308
 S           1.96575001537938    0.42512470721170    1.68710165847781
O           2.46765157294525   -0.17901054652267    0.46771976468052
O           2.90322929515271    0.62757964042712    2.74236835408861
O           1.51491251976363    1.93069799069365    1.25328681074140
O           0.70290422054016   -0.20856805117201    2.08698269707198
H          -0.60862444066727    0.54333099646313    1.55422340481713
H           1.97115991014681    2.40202372766945    1.94172666952105
O          -1.37792558383456    0.97349087326521    1.09725496819044
H          -1.46458848651422    1.84399055983059    1.48651676051994
O           0.39763640909678   -1.98236130039931    0.19805285141745
H           0.50492058381959   -1.40388011159294    0.99275874303635
H           1.29819253655220   -2.22409608016778   -0.03415524978144
O          -2.46172603186114   -1.52848342059226    0.20690873084102
H          -2.35341373043374   -0.70034766528826    0.69288637656660
H          -1.63231376466891   -2.00779989797663    0.32278121675664
O           1.96852487183712    1.38458345155444   -1.56276853950121
H           1.95897300915628    2.24784763932554   -1.14345927287889
H           2.29939024869185    0.77005985221772   -0.86333609003571
O          -2.60056563722342   -0.85332258348628   -2.40371888103747
H          -2.90516552192667   -1.56854482621156   -2.96209158457258
H          -2.73298974257002   -1.14633371018530   -1.47461429988184
N          -0.36450197773392    0.14316046719468   -1.28709464843060
H          -0.02740355465877   -0.75202402099718   -0.85264627370701
H           0.47254475716208    0.68186718384012   -1.61876119420816
H          -1.06706368035234   -0.08138740764817   -2.01128287481952
H          -0.82950779781004    0.66240253254372   -0.51664010786795
