    26
        -50.45436428  Gyration_radius:  2.67849980017 Dipole_moment: 6.668
 S           0.74276316281541   -0.18571220511786    0.52119050535650
O           1.13335782615900   -1.54001291760621    0.85522168382397
O           0.11084005110882   -0.22881447889700   -0.92151468908327
O          -0.38383247442395    0.26275573192201    1.35180190251134
O           1.84102844228275    0.75608793982041    0.50551536635343
O           0.81172780629057    3.02652466867860   -0.33507232640490
H           1.14345013227594    2.17738961075080    0.03405567364349
H           1.24228914999732    3.71577667820923    0.17398354101895
O           1.59574851885639    2.61772938451485   -2.87547537149385
H           1.30631039439185    2.86000196176569   -1.96769319556690
H           0.79882435341595    2.58599912262629   -3.40667975081341
O          -0.69270507644503   -3.23549643563212    0.23123090772543
H          -0.69705311786304   -3.85535521940218    0.96378869369920
H           0.09617125443794   -2.64405222992163    0.39438172790768
O          -2.23464191267167   -0.82371096406605    3.08574941900685
H          -2.21337659883801   -0.59843805056854    4.01639168958202
H          -1.46707858983729   -0.38328885299758    2.68123672581398
O           2.34331055916055    0.15058184834487   -2.10513582797294
H           0.90838518248593   -0.18243961013879   -1.52920911829873
H           2.20635908105474    1.03052029753474   -2.52456864643022
H           2.67910148923593    0.34134641548264   -1.21768468151437
N          -2.29437488107001   -1.17180466204611    0.39197709963325
H          -2.90399168216604   -1.23548118840941    1.21130348339012
H          -1.76388513698862   -2.09108416976033    0.25394305660915
H          -2.78240202598649   -0.88380938342251   -0.44893157679379
H          -1.52632593768352   -0.46521328164599    0.66019370829067
