    26
        -50.45561975  Gyration_radius:  2.45536207096 Dipole_moment: 5.887
 S           0.17546244453526   -2.31365020174733   -0.10913714871542
O          -0.33636025605417   -2.04245570508884   -1.45960899459682
O           0.10226340234403   -3.66438781619726    0.32239169226880
O           1.70575468750484   -1.88758496395531   -0.15251135436106
O          -0.44393070626072   -1.35639139229792    0.83446690305710
H           0.69720520303019   -0.50604379707606    1.62266771700463
H           1.78661376013116   -1.22765060824870   -0.86758574330759
O           1.44601940346990    0.07562267831507    1.89987961235552
H           2.22510647269870   -0.47688666002517    1.80821870741053
O           0.84910464930608    1.78715310463505   -0.02292125041304
H           0.14541855051589    2.28501925962941    0.44098959016447
H           1.18600537240769    1.18879507207057    0.69159973173142
O          -1.27013089285293    2.29146375379839    1.54396714195748
H          -1.86273422270851    1.56626053613690    1.28016045095489
H          -0.87255879179894    2.01516993656794    2.37312867962964
O           2.09466662326315    0.16643144314743   -1.86160820624478
H           3.03500314522539    0.21833941622579   -2.04041742310436
H           1.86636370415537    0.92709956069718   -1.30442758637510
O          -2.60326642811409    0.03309809232120    0.64407685666254
H          -1.81339648827911   -0.55778625322077    0.78652944719396
H          -3.36494812338651   -0.46447972411577    0.94289091329544
N          -0.95759024811855    0.41235719907901   -1.49362713682214
H          -0.66470892917499   -0.65084634845451   -1.54279458918939
H          -1.82199291140506    0.44814153352418   -0.93362483794070
H          -0.21051108464284    0.94511262897157   -0.97709803359047
H          -1.09285833579427    0.78809925531406   -2.42560513903296
