    26
        -50.46661527  Gyration_radius:  2.43325622716 Dipole_moment: 7.825
 S           1.58625729716165    0.45986544005960    1.09304784809143
O           1.54262126902398   -0.97036961203193    0.76621174961416
O           1.90948775587280    1.28991179228892   -0.03268217896018
O           0.37860605284117    0.85105289353091    1.80759839769445
O           2.77170913945183    0.61965813911565    2.12817987342678
H           2.48349153649337    0.09017762462199    2.86365789619430
H          -1.10754841541092    0.27868943243837    1.56956013752581
O          -2.00777361586974   -0.10353910077521    1.40311876794579
H          -2.56769392593363    0.20725203284204    2.11560826155343
O          -1.86339566500415    0.96880697894144   -1.22947040119633
H          -2.15508019442460    0.62407494723362   -0.37514192059481
H          -1.30213874363582    1.74081141567359   -1.01039714546145
O          -0.75393332965413   -1.16554915876983   -2.34091111467265
H           0.20865056945315   -0.97113766993908   -2.40998603661071
H          -1.19489238030799   -0.30644400587341   -2.13448786431442
O           1.83889411100938   -0.66997893630502   -1.92162541396850
H           2.04617904461218    0.27044418857833   -1.91431092867001
H           1.88685826487527   -0.91942704427108   -0.98382371542567
O          -0.24852006611287    2.83295823077542   -0.12187780281404
H           0.62001995017554    2.40304481001903   -0.22747479104439
H          -0.44165637026917    2.73749057787207    0.81470424561206
N          -0.73967742472589   -2.08578801444911    0.04372863461277
H           0.19421837505376   -1.73326174998772    0.38030160444185
H          -0.80404437543064   -1.78931144181353   -1.02615239743223
H          -0.82181020640766   -3.08786419482566    0.16914351990347
H          -1.45882864289310   -1.57156754477753    0.57348075425822
