    26
        -50.47679055  Gyration_radius:  2.36812355486 Dipole_moment: 3.212
 S           0.53456840055893    1.41886272158802   -0.31330831001718
O           0.61713692384031    2.44788232199394   -1.46372526019169
O           1.47200936147212    1.81306042973106    0.71744411389226
O          -0.84137868970579    1.40179877244454    0.18461631447059
O           0.87669342686599    0.09928847309437   -0.86860058153249
O          -0.89442856840970   -1.78542638588358   -0.16878484925233
H          -1.70659501166735   -1.56191432175806   -0.63750350526707
H          -0.24970480052672   -1.11304057480218   -0.47055556394443
O           2.11132842169368   -1.90976174464814    0.41752508154622
H           1.41293952462797   -2.56276212410576    0.30827552329157
H           1.87587747696422   -1.18471318344133   -0.19505755167796
O          -1.07190903394179   -0.40907191699080    2.13334370939963
H          -1.14295947448606    0.40123394522422    1.58975876757433
H          -1.13920371505541   -1.12687356812169    1.46756049830995
O          -2.52554009053724    0.21401795536768   -1.41434910671146
H          -3.36655445472764    0.67314031090168   -1.40815602916897
H          -1.94733147767433    0.68932899391351   -0.76683758806980
O          -0.47562368804361    0.77080479207078   -3.11247334331905
H           0.14648073951128    0.15474662718787   -2.70234428291229
H          -1.34463714384952    0.54860102860706   -2.72485299202374
H           0.17935349360278    1.98003672840265   -2.22255703330292
N           1.51713684642458   -0.19956929362861    2.36600676966176
H           1.89311980962825   -0.97962265418219    1.76819735483292
H           0.45932791567863   -0.34210186338485    2.46766853637161
H           1.99405485021354   -0.12713997551434    3.25765430917471
H           1.61583898751390    0.68919449595142    1.79105502886023
