    26
        -50.43990194  Gyration_radius:  2.62085237583 Dipole_moment: 7.207
 S          -0.42738991313517   -2.28561061982563    1.45124292649953
O           0.23103583711661   -1.93458197687200    0.21169848435333
O           0.03805627294207   -3.44917542515492    2.10642397065644
O          -0.33871582194408   -1.01992745066299    2.37750273576750
O          -1.94472155287048   -2.38622177302416    1.21190511447395
H          -2.28919897708846   -1.45649708327168    1.05443339746447
H           0.52949508487019   -0.56958560960996    2.14136758963718
O          -1.32666419877763    1.44586105206434   -0.93551795670989
H          -1.87203430318341    1.92346712097978   -1.56162723151733
O           1.75018389621702   -0.03071781652937    1.29163374836141
H           1.51701529542349    0.83999945384189    0.91472974297646
H           1.51545176716530   -0.69470009355272    0.62113809028352
O           0.96448568609844    2.31938039125187    0.11642312553960
H           0.84856441723956    3.14874128668138    0.58126108606598
H           0.09027009508084    2.06964581101482   -0.26189296594421
O           2.54785197374667    0.86159670081091   -1.72334392628206
H           3.15301679096379    0.38052439285616   -1.15514979359788
H           2.13248328905048    1.53533736534727   -1.16716017374398
O          -2.56113661391374    0.10473842620891    1.03219033304207
H          -2.13933834290639    0.58975010186303    0.28712651919457
H          -2.06460564226331    0.32940753868601    1.82484489664694
N          -0.04712008284304   -0.40376567507994   -2.16284751757523
H          -0.36469386050043   -0.82495272935378   -3.02542841417814
H           0.89799146540055   -0.04876333629033   -2.30479225145197
H          -0.85247879714526    0.68873257334023   -1.47299163580832
H           0.01219622582389   -1.13268264517037   -1.45316990420084
