    26
        -50.46944048  Gyration_radius:  2.47828977154 Dipole_moment: 4.354
 S          -0.10702994144714   -1.79785193316848    1.02556372423485
O           0.35799754805255   -2.84312680632627    0.14823517881542
O           0.90809832046607   -0.80438229218194    1.34617228985838
O          -1.34007814065612   -1.17092379497372    0.55985252605837
O          -0.45486181859510   -2.49767724057444    2.40763144827272
H          -0.74699459002578   -3.36038409315818    2.13229236150004
H          -1.42670480706006    0.06420172512737    1.74033980383028
O          -1.05899883156935    0.72731548729070    2.35697857031110
H          -0.15025738975879    0.41814357302048    2.46604681154805
O           2.26701639836290    0.38388235324520   -0.49002621106862
H           3.10659511656450    0.63129560802651   -0.09947590674347
H           1.77324488990740   -0.10731476111396    0.22161298769948
O          -1.06431971596408    2.87140420991125    0.85182733288874
H          -1.98933419924628    3.11556744687044    0.79333449882667
H          -1.03156211624713    2.11287624713361    1.49861883347390
O           1.05177864440306   -1.63512866823940   -2.12976476222533
H           0.84358024608157   -2.23269184527234   -1.38403285798569
H           1.71402612743722   -1.02244615624556   -1.78756864119049
O          -1.22505911179435   -0.29926895523892   -1.93514052136496
H          -0.47351251997468   -0.86382309246639   -2.23674349401458
H          -1.44596268358598   -0.65919882626538   -1.04924033689676
N           0.10591212987914    1.81881276726500   -1.29633197264792
H           0.23946877199441    2.47592183860888   -2.05682875164243
H          -0.51868283323223    0.97805688148401   -1.61284752173442
H           1.01593083163191    1.40833041060049   -1.00184073933054
H          -0.35029030562825    2.28840992663845   -0.46866465047439
