    26
        -50.46740708  Gyration_radius:  2.53243136042 Dipole_moment: 1.659
 S          -0.36677698430853   -1.70441312624977    1.47469988716970
O          -0.12611049180272   -2.48486104183875    0.26921067821736
O           0.81187306076449   -1.43282904935686    2.25269651912875
O          -1.10320783602655   -0.47539564093473    1.16078971329465
O          -1.34101112333891   -2.59342708204743    2.35142853346356
H          -1.74448705403528   -3.13961525041394    1.68422503905669
H          -0.34366154579967    0.93091520173449    1.34655905612829
O           0.15223702812592    1.78572906394025    1.42944671483082
H          -0.05180880407993    2.12186879957975    2.30337122292234
O          -0.11758357296953    2.89879980698765   -1.04388397611043
H           0.64862824511779    3.46503000248224   -1.14554097968034
H          -0.08552700009304    2.54886199613007   -0.13355639637572
O           2.35084974435380    0.23944691922277    0.88523052592533
H           1.78845201250733    1.01328353625554    1.05502648247982
H           1.99176446219782   -0.43884333653302    1.49526371610501
O          -0.31245497752417    0.62461779773049   -2.51409220736541
H          -0.25986704299386    1.50881091812234   -2.09939609030067
H          -1.15253608269446    0.24094043488290   -2.18055681539643
O          -2.41655757253541   -0.30750634547774   -1.13126967005055
H          -1.94126092003309   -0.44045416371972   -0.28269412523964
H          -3.07057828221680    0.37347130618200   -0.96290459285069
N           1.35402890545464   -0.94980063160416   -1.26055473682623
H           1.86974835872777   -0.41000539830976   -0.50904831256843
H           0.71592957770096   -0.29517572229965   -1.82896940308365
H           2.00344883716740   -1.43593739339818   -1.86918240712013
H           0.74646904838255   -1.64351161104050   -0.74629837578224
