    26
        -50.46457033  Gyration_radius:  2.43726932341 Dipole_moment: 2.728
 S           0.52717313112949    0.70424183253133    1.92611399304788
O          -0.87264490183535    0.35786715804431    2.14097913125505
O           1.05222606390890    1.69289950501770    2.81137095052588
O           1.35859172107085   -0.64414954736306    2.25319996068641
O           0.77997130665036    0.94941841538296    0.51026326258661
H           1.52350880764395   -0.34838058703273   -0.17243824251734
H           1.71434848844943   -0.37473302436862    3.09249534818622
O           1.93090233825641   -1.09412793475811   -0.67029601754855
H           2.36881350298888   -1.63006205304322   -0.00752873496572
O          -2.04081775086804    1.77955482701239    0.28219423052519
H          -1.70755461385222    1.21589308560384    1.01853844519886
H          -1.59648024868054    2.62299925355819    0.38730369026797
O          -0.96766682118332   -2.11865976814452    1.25139424374995
H          -0.20890939822093   -2.48982015401570    1.70593977879911
H          -1.05094360542008   -1.20427504050336    1.59512319773888
O           1.24949352670304    1.49838856337590   -2.07067799187070
H           1.84269259177220    0.75525361521672   -2.22035940484152
H           1.20325529262925    1.58228315671566   -1.10191359112469
O          -0.54567082170359   -1.93026466833717   -1.37628137325595
H          -0.84980052871748   -2.10948921271448   -0.45895606692057
H           0.41606777521370   -1.77573213958714   -1.28314108471864
N          -1.24456706887980    0.51797592547753   -1.94170101081050
H          -1.05251783685052   -0.52135008564547   -1.72828835636385
H          -1.89774640656360    0.61861010800120   -2.71042552675648
H          -1.61578488269526    0.98681307025686   -1.07309213930329
H          -0.31593965094757    0.95884569931919   -2.15981670156825
