    26
        -50.46114353  Gyration_radius:  2.69239509849 Dipole_moment: 2.311
 S           1.41167894851020   -1.99760043055470   -1.27749737139676
O           0.11357247444609   -1.97357615940111   -1.94855355697189
O           2.38675717306503   -1.12520122417435   -1.86037380923350
O           1.23873685952599   -1.74906944716501    0.16237741901036
O           1.92392599156632   -3.49363918838234   -1.41257484004808
H           1.11932037932870   -4.00372288879270   -1.44425296341804
H           1.69687182365306   -0.15352404160477    0.17075485692853
O           1.81809900734454    0.80181497931479   -0.03860895245545
H           2.57677196351609    0.80300285904318   -0.63069300378118
O          -0.89166421203161   -1.03233693598617    1.50406495243029
H          -0.12423493390089   -1.34373249771031    0.96470029835236
H          -1.09794921390149   -1.74774059137356    2.10676516282174
O          -1.64984874630843    2.90697461321002    1.24802250822490
H          -2.12494852995833    3.33381813051958    1.96140673607624
H          -0.87756728807601    2.45000771305899    1.66305800828254
O           0.28506716499274    1.38181949452422    2.23496456291473
H           1.00832291837866    1.39153754282744    1.59446437710119
H          -0.13045086301262    0.50835106331578    2.13198070608505
O          -2.42087762776373    0.69276668171823   -0.02393182148189
H          -2.08401590327272    0.01684562750673    0.58822044589572
H          -2.28488384384650    1.55691744031607    0.42673792258708
N          -0.37845213753338    0.57533968333886   -1.64170116897942
H          -1.27923054672501    0.66989009807797   -1.05293623404712
H          -0.42956248222272    1.13016272768812   -2.48926874457651
H           0.44536902625604    0.85339661385392   -1.06129007360330
H          -0.25080741203337   -0.45250187316967   -1.87583542670914
