    26
        -50.46358187  Gyration_radius:  2.42848382833 Dipole_moment: 7.205
 S          -0.79852563554261    1.25487573891076    0.30936687674943
O          -0.11347074555994    0.77464174127340    1.53501754557813
O          -0.43511143390732    0.11408775638840   -0.73705081074675
O          -2.23189553773945    1.20600429751272    0.47687220332874
O          -0.25136489425361    2.49329015007181   -0.16211187863662
O          -3.13474945077957   -1.20978307825624    0.45219940711289
H          -2.83586246748960   -0.26493131261183    0.35437010755537
H          -4.01810837587669   -1.16191522630415    0.82163270452295
O           2.10880497424954    2.11629232673032   -1.31447165813007
H           1.31698687104354    2.49130913223285   -0.87768648852914
H           2.39054186890797    1.39663303973836   -0.72906390056772
O           2.27598714557026    0.16728936202802    0.71267644856889
H           1.38708573565348    0.46521700515907    1.03447600521233
H           2.90459603651795    0.41943562360388    1.39126798493213
O           1.05608240787499   -2.14465168666788   -0.14766565768784
H           0.52322742617943   -1.65849541131695   -0.79107006095075
H           1.71104677104447   -1.48846690501003    0.15233992847952
O           0.45247121349669    0.97840620937280   -3.00941020056966
H           0.91593490433121    0.30293281860995   -3.50840456805696
H          -0.23184741599297    0.51613123549139   -1.62509232250867
H           1.14746897216494    1.51695348145692   -2.54904583593819
N          -0.83406895949844   -1.68864975144037    1.66763292250787
H          -0.11374533068527   -2.09304159281865    1.00988766167286
H          -0.56934716886405   -0.65018571865538    1.74911209857820
H          -1.78601454880466   -1.69782809277473    1.21652134481479
H          -0.83612234206430   -2.15555115273801    2.56770014273896
