    26
        -50.46793800  Gyration_radius:  2.41550415959 Dipole_moment: 4.426
 S          -1.85165267048429   -0.46477464380891    0.40265264948804
O          -1.34239678332881    0.58107181868075   -0.47764090305686
O          -2.18843283006983   -1.67141419505101   -0.30124962574690
O          -0.92214738453236   -0.69821224654686    1.51552660272750
O          -3.17522119510860    0.09130099466905    1.05490095603221
H          -2.90956461597289    0.85972753315772    1.56587575414041
H           0.58511903262091   -1.08593626363821    1.28183938395968
O           1.55182409947417   -1.27722021337025    1.13639802125920
H           1.74995801345553   -2.03491488322268    1.68874204763034
O           1.72071041764411    1.63017778636516    1.34376407166892
H           0.88314716911351    1.89258966006468    1.76127514757688
H           1.80977713276858    0.67823701257931    1.48138115608767
O          -1.02762979570464    1.88396455214473    1.88899369957913
H          -1.14980742421389    2.03721330423656    0.94383380781318
H          -0.92184007159300    0.91489970799532    1.96300349875144
O           1.00976433636409    1.62058691714208   -1.22462682469727
H           1.38383412198747    1.80921953581832   -0.33150582938638
H           0.07620842921522    1.38450048469835   -1.05653249930463
O          -0.76921847630677   -1.51836954665873   -2.47861222993117
H          -1.11899125456588   -0.69581155360291   -2.83081940204495
H          -1.33396596127975   -1.70314713424707   -1.68889694518866
N           1.61640151354394   -0.86961892827352   -1.54039430663266
H           2.41805456783094   -1.15254633726602   -2.09215176417960
H           1.49647904252208    0.20942573564454   -1.50569118755718
H           0.70786797820054   -1.23968288295650   -1.94848920248677
H           1.70172262842270   -1.18126620455455   -0.55157607649712
