    26
        -50.43295076  Gyration_radius:  2.48519808609 Dipole_moment: 4.999
 S           0.01184897484645   -1.83918267032030   -1.60605575538868
O           1.02823037041550   -1.60459809574835   -0.59660339050718
O           0.30756189893334   -2.80635071771525   -2.59342028423283
O          -1.31997763219589   -2.14088371677618   -0.87938662806804
O          -0.27657451234515   -0.47786786168426   -2.29046347652740
H          -0.92874037404842    0.05158398165749   -1.68242203369493
H          -1.15475981314168   -2.05424416358703    0.12816409237985
O          -0.71974836686790    0.82582463613369    1.42359201560128
H          -1.03829569606532    1.58814742217409    1.90300852069076
O          -1.83854810937111    0.80751493501238   -0.80026697635827
H          -1.40746779320257    0.82520590187166    0.16741749924759
H          -2.61613572127164    0.25118875247225   -0.73029703769327
O           0.43744127085057    2.25204666862160   -2.08753830713010
H          -0.47004794701458    2.30564585215247   -1.76756681992942
H           0.44536308357366    1.50725240308140   -2.69919639515347
O           1.58196372889533    0.26350825063607    2.91211501641707
H           0.67709561142973    0.41632268819849    2.59098864165309
H           1.52468800384615   -0.43419469940591    3.56525936939141
O          -0.66572864242792   -1.76542389238378    1.53138379681944
H           0.26525915163221   -1.88499384190512    1.30162318152569
H          -0.79104271225284   -0.78283297101105    1.60661090907034
N           1.43035265833210    0.95794035029021    0.10568332663728
H           1.31655642866486    1.58843388367740   -0.70643792038755
H           0.49516973029608    1.00641012666898    0.73676652340503
H           1.46918830300943   -0.03027775227633   -0.21588796269504
H           2.23634809548210    1.17382451017029    0.68293008493449
