    26
        -50.45793700  Gyration_radius:  2.8230644366 Dipole_moment: 4.348
 S           0.04649499546018   -3.00773632240681    0.40958458376683
O           0.31726193806651   -2.58739234764448   -0.96019579385171
O          -0.33123315689118   -4.37340495967187    0.56723998462764
O           1.46226598611912   -2.84989720075870    1.18427032088830
O          -0.81230872689121   -2.03042746946164    1.08750102928846
H           0.21070624466211   -0.88237748293010    1.64234515804321
H           1.75857698376666   -3.75342713471706    1.17257941944991
O           0.86734037473470   -0.14949475010274    1.73931910924732
H           1.67344804784824   -0.58049277534599    2.02977082645572
O           0.02269798953642    3.43924396970053   -0.66911257676995
H          -0.38936551203047    2.89931894887119    0.04531919838568
H           0.37228341787642    4.21943064053220   -0.23759951721526
O          -0.98871431525153    1.91010089541720    1.28325757716096
H          -1.63978602499270    1.29041078646021    0.91866781345522
H          -0.31721122832090    1.35849583178187    1.70614172179365
O           1.38769524345018    1.96281877185818   -2.43005253929554
H           0.95642842951051    2.59730385782612   -1.81430081976677
H           1.11148296437455    2.21177498849555   -3.31285471932620
O          -2.28099141103067   -0.17072874137048   -0.03569632994151
H          -1.82197394039358   -0.91805061169819    0.41864652820292
H          -3.17775729363920   -0.46391949619728   -0.19842069390078
N           0.32550374041305   -0.01082259051244   -0.93170830379092
H           0.71071442960355    0.16149560288640    0.01685289416308
H          -0.67865916343717    0.20929664648453   -0.90438364329155
H           0.81382696932042    0.58219843395868   -1.63464562381020
H           0.40127300813761   -1.06371750145002   -1.09252561395807
