    26
        -50.45426432  Gyration_radius:  2.42938898047 Dipole_moment: 4.219
 S           0.28230192694419   -0.11088875654458   -1.79254557186818
O          -0.34287799887919   -1.27195733102884   -1.14184336892780
O           0.70417284430931   -0.31463648119597   -3.13298840852802
O          -0.85421200543282    1.00414726891377   -1.78152571329048
O           1.33747999897274    0.41887069792380   -0.91031931515486
H           0.78602982809446    1.00690130454923    0.46247957041281
H          -1.42431480099822    0.73030052625034   -1.03247581560590
O           0.31312277272117    1.30788254075099    1.28580356795488
H           0.23723763816985    2.26400445820091    1.15025758095986
O          -2.06333688042336   -2.23577109171214    1.00865223397595
H          -2.30691287361473   -1.30159669417208    0.95544717362935
H          -1.86024307579750   -2.47728272464795    0.09973240211094
O          -0.12312898332828    3.37502353452801   -0.45505119353359
H          -0.37267522017160    2.66554189472828   -1.06908448842376
H           0.60168082319503    3.84303874655934   -0.87240704999620
O          -2.10307939049822    0.58669472350174    0.53964363861396
H          -1.24630672646427    0.87405530583277    0.95335772678229
H          -2.72600436149939    1.30395576196549    0.67129599007428
O           2.89434993144297   -1.51982465847917    0.04415826170993
H           2.46978753557213   -0.73348133312224   -0.36327837418370
H           3.21710967684240   -2.05031432985492   -0.68535341412017
N           0.52648569637883   -1.48510703082232    1.25705898154002
H           0.49909649510169   -0.56823364607765    1.71060526029494
H           0.12769841493725   -1.37846012847491    0.24319858018331
H           1.51101113887820   -1.78049828640076    1.12181179400659
H          -0.08447236443975   -2.15236426117171    1.73336996137812
