    26
        -50.45847632  Gyration_radius:  2.48239285227 Dipole_moment: 7.729
 S           0.51751956302032    0.91256764128802    2.01202097699025
O          -0.49762518977186    1.32900938504906    1.01152121348929
O           0.63797955047471    1.81590524399201    3.10277452333480
O           0.03757028840031   -0.50399021536550    2.52513394051747
O           1.77055698693829    0.62477748324987    1.30463295383193
H           1.40520461980838   -0.78589130824799    0.68894431491335
H          -0.93650734770565   -0.52684445392647    2.38917384006788
O          -1.26858274516559   -1.83195974622726   -0.58403022481172
H          -1.38476549036067   -2.75790658373465   -0.80268610923741
O          -2.40129163963409   -0.39421422016617    1.55534259986590
H          -1.98805722588494    0.44955211114438    1.29492678438994
H          -2.22856365520285   -0.99682392625220    0.81597205649160
O           2.74821354356416    0.53301464790511   -1.15941376994205
H           2.72664374925125   -0.42420717107909   -1.25088747514442
H           2.65660591087560    0.69236124809607   -0.19757949484972
O           1.21495948941401   -1.67069806440749    0.27379166251874
H           1.27078417242409   -2.28445085229076    1.00955244122966
H          -0.32899845163640   -1.73581132030668   -0.26933583506844
O          -1.57532749065726    0.01611319104591   -2.50726869670707
H          -1.48486921171952   -0.71208596253073   -1.85358681004059
H          -2.47066771294606    0.34649165912813   -2.41473831758926
N           0.31852272530823    1.59391181404946   -1.41286087192595
H           0.32995654304220    2.56362938894611   -1.70949889865908
H           1.28954860180379    1.18254666540405   -1.46484359528735
H           0.00349904693684    1.53018306961073   -0.38046720436553
H          -0.36230863057648    1.03482028562513   -1.97658999401392
