    26
        -50.46011883  Gyration_radius:  2.34348394067 Dipole_moment: 9.062
 S           0.14191723467843   -0.41430137658518   -1.83564781443135
O          -1.27895349030362   -0.52161043446331   -2.13348067721718
O           1.00096063182020   -0.06918397993518   -2.92275131040342
O           0.25265443481515    0.77017604273453   -0.75811716484283
O           0.62542135958568   -1.57802790693704   -1.07648974212679
H           0.23272160364650   -1.93642270794447    0.37309020594082
H          -0.37795039031845    1.45934702317876   -1.05584323365361
O           0.06841744315472   -2.09432678327812    1.35156011560466
H           0.32138912999472   -3.00516290905517    1.50879901308213
O          -0.92842568270621    1.51670013741309    1.72071956682155
H          -1.44565523521475    1.57813707027917    2.52528061092541
H          -1.39565727089386    0.86064051615692    1.14301420385926
O          -2.10622796153676   -0.45665521098090    0.38873134461792
H          -1.65805902407962   -1.19780500221105    0.81336634119778
H          -1.88601592757804   -0.53265809240127   -0.56511485334000
O           2.77731290412865   -0.17723458092825   -0.57175896490539
H           2.11511975822192   -0.84993522063179   -0.84044948162938
H           2.76856354018531    0.43905134405214   -1.31002881493852
O          -1.83022169708379    2.03669679687413   -1.77842027543085
H          -1.83688592393679    1.15110573678656   -2.19054251462708
H          -2.53277543696252    2.02820928452657   -1.12313641344453
N           1.41322257429444    0.21212940712790    1.69074199074938
H           0.59977500481517    0.88013766187153    1.63482267923939
H           0.98517788792492   -0.74283187402106    1.74265020542712
H           1.96346548953049    0.23644889857073    0.78206104503392
H           2.01070903380801    0.40737614980077    2.48694392848743
