    26
        -50.45719260  Gyration_radius:  2.50672844398 Dipole_moment: 4.878
 S           0.41495091847901   -1.59125594491010    1.91988430068915
O           0.41241865666173   -0.82148074177934    3.12763901554929
O           0.71070070966996   -2.98526956736097    2.00744124160513
O          -1.13847241268647   -1.54341321593158    1.36812028909404
O           1.12333006550269   -0.90709435260891    0.81838639328996
H           0.29598258420942    0.45471365974250    1.33376794880640
H          -1.51377796975683   -2.24016400879581    1.89681681281196
O          -0.14669204701547    1.30297456282045    1.53650755835672
H          -0.38789660032861    1.20196716905135    2.46169922154477
O           2.35487143250834    1.45212044905443    0.03936968572920
H           2.20895571379965    0.53941217417859    0.33207867194161
H           1.86169212942873    1.99102395556069    0.66621699328319
O          -1.45027382086587    1.80196891858986   -0.72729943346890
H          -1.97268313059556    2.59898663972551   -0.63043767203621
H          -1.01039003396517    1.64653027631843    0.14122763763636
O           0.88197762557443    1.36096637224765   -2.19986901913650
H           0.03900764253842    1.68675912264106   -1.84263003138827
H           1.54498640272455    1.51917561357919   -1.48983524520609
O          -2.14556729014521   -0.83609055362223   -1.11427064121304
H          -2.09784381782960    0.13641662314570   -1.09187861909009
H          -2.01106130186578   -1.11805736804040   -0.19589443573714
N           0.41592058687307   -1.15993107600711   -1.69571540729870
H          -0.63884362927923   -1.18790815490242   -1.64179821860349
H           0.68308961328931   -0.18546725820303   -2.05807470956502
H           0.76595114791649   -1.20913852646502   -0.70027683774696
H           0.79966682666969   -1.90774477977033   -2.26117549071249
