    26
        -50.45675023  Gyration_radius:  2.49995017142 Dipole_moment: 1.668
 S           0.59379017101469    0.17238408066978   -1.14907339041084
O          -0.29015914601892    1.31430462884947   -1.32592203903627
O          -0.17568689862420   -1.07606408164530   -1.05276315032221
O           1.46766844257594    0.01971863179134   -2.42642773446590
O           1.47068465483914    0.32851311474834   -0.00262174012576
O           0.40849640612121    0.27342134265865    2.38735852557623
H           0.78962178796265    0.33141452176222    1.47741378513050
H           1.15882912550060    0.15701232256869    2.97290368891350
O           0.53942076960821   -2.98718697695199    0.63834751926063
H           0.38436934266742   -3.80663389133113    0.16589718649321
H           0.44166850123890   -2.26894003788860   -0.02452400067189
O          -2.41107800591340    1.52294069026694    0.15328338601476
H          -3.06324550113576    1.96176570952124   -0.39619030977892
H          -1.56370595467056    1.53739003131580   -0.36439543283084
O          -1.19195637020292   -1.77377665100328    2.21385051413575
H          -0.64944274744641   -0.95848297226553    2.41271127796470
H          -0.54769430327575   -2.38647092466383    1.77673997701934
O          -2.38512782679387   -1.03008188180247    0.20000936820917
H          -1.93016471834060   -1.38896521553108    1.19767243699965
H          -2.53458161932598   -0.02711359878680    0.28101004839963
H          -1.58335558026430   -1.09842307977930   -0.41893723633176
N           2.31753609044098    2.39199539372973   -1.76440354733550
H           1.95701488817358    0.87986066280104   -2.43068495190328
H           2.51849907389097    2.01723001090834   -0.84325963948229
H           2.92365764868629    3.18394426598019   -1.93997338659657
H           1.35494177927471    2.71024390405441   -1.73802114482637
