    26
        -50.46357415  Gyration_radius:  2.60022901628 Dipole_moment: 4.801
 S          -1.28315071668513   -1.00991799368235    1.50923892011958
O          -2.17232252048801   -0.22508624119614    0.65581802463171
O          -0.72402499115000   -2.16356453845604    0.84378206345345
O          -0.27877544012818   -0.16075959111091    2.13937121252030
O          -2.18660485981704   -1.58003278018946    2.68190776942204
H          -2.55212421542300   -0.80524402570808    3.09784487311686
H          -0.17393421244453    1.55422441088772    1.24999091873762
O          -0.61064484447421    1.83254761760005    0.43080426258938
H          -1.38283852218391    1.22026894233941    0.41468184135981
O           1.83089756615172   -1.65285989190224    1.54505111177536
H           1.21083895695802   -0.99504222455417    1.91595994048408
H           1.23068570321213   -2.34427967063768    1.23685760301817
O          -0.11884686686016    3.06475130038269   -2.12264593995067
H          -0.54672402339494    3.86157003820024   -2.43722996397947
H          -0.39643306718501    2.94443824730877   -1.20434770943698
O           2.91928862283857   -0.57495220491152   -0.59038498451245
H           2.56301754903466   -1.04602123832436    0.21060153284282
H           3.66357497277050   -0.05705989704931   -0.28140200255696
O          -1.24293104334809   -1.38552578518031   -1.60852559110684
H          -1.96772685001548   -0.87394252672554   -1.22195917741527
H          -0.96815517192646   -1.94220214621150   -0.85177228368385
N           0.65395257539716    0.46490314378819   -1.54092055737307
H          -0.03622703855096   -0.31963369954162   -1.72285192623412
H           1.59328615986554    0.07413977647492   -1.28097425029258
H           0.70689909337442    1.10356842002258   -2.33374791080882
H           0.26902320449516    1.01571255834928   -0.73514777672082
