    26
        -50.46312445  Gyration_radius:  2.44031772397 Dipole_moment: 6.363
 S           1.81843538688405   -0.47766373664486    0.05829457650201
O           2.12682940973546   -0.80828984692744   -1.33648187146909
O           2.95495194723145   -0.31178220096637    0.90417155362805
O           1.08137361936407    0.92898862511536   -0.03108244060659
O           0.79794922224287   -1.40181631499632    0.58065690694139
H          -0.55630801991177   -1.73707645940375   -0.09168306719164
H           0.11273820395852    0.82381719781885    0.15312978981406
O          -1.42860180228406   -1.84010823207369   -0.57665082737865
H          -1.74754374980857   -2.71718871730370   -0.36091513744310
O          -1.52418693663564    0.81880366097628    0.28760674767790
H          -1.52834709274623    0.97489580654277    1.26435921969777
H          -1.77863624775520   -0.10486700290328    0.14965016209645
O          -1.13456729833278    1.19213840437297    2.86457266544961
H          -0.92437581161967    2.07627634515948    3.16829735445556
H          -0.31266355861372    0.66082596473017    2.98607965739481
O           1.12845967706413   -0.22237837439039    2.92731037189046
H           2.00174204639732    0.07561143290349    2.64127182198891
H           0.90146772284515   -0.87575661930680    2.24338906616377
O          -0.65897231281145    1.95356584258241   -2.06684588946280
H           0.18444470197205    2.23360540796314   -1.69447511201519
H          -1.23081624345032    1.79357969209987   -1.29798977431456
N          -0.07369613435000   -0.61330690420064   -2.58283297189129
H           0.91579354399508   -0.72076274965873   -2.10258308427681
H          -0.34016089192028    0.40408843094468   -2.52770738133595
H          -0.04391745189416   -0.93580197406842   -3.54384269937130
H          -0.74139188954746   -1.16939767834181   -2.01569960695249
