    26
        -50.46573229  Gyration_radius:  2.49346901655 Dipole_moment: 3.967
 S          -0.63020215313526   -2.02216214339724    0.65748521306605
O           0.29015589476140   -1.91932224158581   -0.47109918603468
O          -0.02608600342808   -2.51343050926599    1.86112334959078
O          -1.37899544810400   -0.78144348053029    0.83450969453127
O          -1.73692424761595   -3.08922075668879    0.21944585356024
H          -1.39268392726549   -3.92087133386141    0.53068964853149
H          -0.05042592078414   -0.31307789286854    1.89724435149714
O           0.68225656947121    0.14684584783843    2.34441156384246
H           0.99930708365285   -0.49231612195919    2.98776913548152
O           2.30291857163929   -0.27290170905613    0.16064121054246
H           1.90610112487754    0.00307031406367    1.00581270298551
H           1.71286141375574   -0.98031595204832   -0.16246154029916
O          -1.21483528903860    1.89060376810056    1.06628310807184
H          -1.52153631488473    0.96462051426931    1.04180397239342
H          -0.48013973217573    1.87176272236040    1.69021346528744
O           2.16704533975368    1.71832795897537   -1.51242651721982
H           2.29454361045784    0.90983715608036   -0.93929626928284
H           2.74326106078211    2.39103597690443   -1.14753056177810
O          -1.43851402543336   -0.62672725088812   -1.90433721357667
H          -0.69932793508184   -1.17973860382801   -1.55770895634337
H          -2.10835811700277   -0.71936013347871   -1.21780712844466
N          -0.48542935794645    1.80633050434267   -1.48986454897105
H          -0.89239750503065    2.50756478158368   -2.09911351000994
H          -0.84727571865557    0.83663871504959   -1.75029460414316
H           0.56777658790539    1.81459988208195   -1.56299836067468
H          -0.76309555146413    1.96964998777279   -0.48249489266764
