    26
        -50.47416936  Gyration_radius:  2.42069663003 Dipole_moment: 2.028
 S           0.98118539717619   -1.26868105933459   -1.19737211267484
O           1.39331692771249   -1.50892220579533    0.17289319951196
O          -0.45968012314046   -1.35621454642465   -1.36352145992605
O           1.54808122109789   -0.03914794134904   -1.72947806855771
O           1.58419295822987   -2.43128423033451   -2.08674465191938
H           2.44876566041304   -2.09104540445480   -2.28879714204163
H           2.15897997400725    0.77382157560169   -0.42241784553410
O           2.42706410748924    1.00402519659233    0.49525151488275
H           2.58882327454118    0.13930222687905    0.89065908737681
O          -0.23865444182175   -1.06395884652784    2.22778366317009
H          -1.10919096402179   -1.19006112064403    1.81581568846450
H           0.40404708653680   -1.36798014681353    1.55133928355348
O          -0.86443783776221    1.12095100873344   -2.28125500546506
H          -0.87184194164929    0.16238561454649   -2.10608611836035
H           0.07283233533590    1.31663052282267   -2.38487604704924
O          -1.88115756048719    1.70883064194630    0.11303976486914
H          -2.27116500946652    0.83404758153719    0.28031053682985
H          -1.56237242176754    1.66295274330646   -0.81803459694132
O          -2.32599615681333   -1.01179038626271    0.44004138862344
H          -3.08385306037990   -1.54533368640235    0.19680730514944
H          -1.63713869081030   -1.18860471590361   -0.24472141792636
N           0.14340135385673    1.49527229777184    1.76365245125623
H          -0.02156912137659    0.50169498046180    2.11656284699637
H           0.16787258137042    2.16411249221919    2.52469360851408
H           1.06505738836318    1.46923680144437    1.24788225970834
H          -0.65656292666000    1.70976060645881    1.08657188759066
