    26
        -50.45737889  Gyration_radius:  2.430958826 Dipole_moment: 7.361
 S          -1.53788364523531   -1.29869339338774    0.14533542924580
O          -0.26949561803124   -0.82060897202439    0.67830558576109
O          -1.71955684418413   -2.71271001953221    0.23433302752823
O          -2.65644332111034   -0.56962279788817    0.99176653790136
O          -1.69872718712157   -0.78973148556207   -1.24266694322029
H          -0.91379858602659    0.45236577333671   -1.42389973338464
H          -2.29391424289293    0.32445410842611    1.09806329551960
O          -0.36754717833942    1.31205703654624   -1.53047256464811
H          -0.67942187418807    1.71174404180044   -2.34441080578063
O           0.32928837067593   -2.39989974165725   -1.72236900229260
H           0.14479474292762   -3.03584897470753   -1.02294523327464
H          -0.49733132648427   -1.87441648495383   -1.75668299447115
O           2.18424156026537   -0.33201338828148    1.38376306414455
H           1.98478886844387    0.55393127296296    1.74784735388478
H           1.30552679195517   -0.76134971417295    1.37033098988871
O           0.97384566480885    1.88496602212380    2.37858453718564
H           0.75521890502158    1.63872628201068    3.27922885498513
H           0.14615018532600    1.81300233595167    1.87326840999945
O          -1.41042049937575    1.88821757100234    0.90283125427032
H          -1.95682586506562    2.67045205198698    0.79889550219078
H          -0.96832965719961    1.72721428401587    0.04197766466920
N           1.85761753511957   -0.26640677300796   -1.19778675041999
H           1.36573972836659   -1.18516396924142   -1.38294768356083
H           1.14081134706728    0.47032841294410   -1.34584924156179
H           2.12145758531899   -0.25636968771499   -0.14924247248288
H           2.66021458994650   -0.14462381098057   -1.80525809207217
