    26
        -50.46471586  Gyration_radius:  2.51589582427 Dipole_moment: 2.407
 S          -0.94294670207825   -0.85419249651797    1.84163558988191
O          -1.26207526546826    0.47556312078281    1.38284828841987
O          -0.85989660667570   -1.80938742783221    0.73722197625737
O           0.23259584361663   -0.91552186065966    2.69109064267489
O          -2.15941376557896   -1.32990600142881    2.74378091784624
H          -1.80165030505840   -2.10505260263340    3.16499715238785
H           1.16133852893868   -0.02213520200928    1.77267910303251
O           1.68055178577990    0.55018047273925    1.14958985269852
H           1.85215590621511    1.36014323715202    1.63442873609611
O           1.49121990051250   -1.69425484588524   -0.58646312018286
H           2.01147633160042   -1.18793450413408    0.04546989611321
H           0.64425720505145   -1.86658628048163   -0.13013512472327
O          -1.25584454573724    2.93983555483550    0.32990376290310
H          -1.28736216676835    2.11684537054363    0.85680427004608
H          -2.17116890533176    3.16809077032623    0.16048625310896
O           1.73071053822596   -0.17754383031822   -2.81532680969611
H           1.64227211593141   -0.81517628160136   -2.07356756814807
H           2.48836711243018   -0.46478142392931   -3.32456627779510
O          -1.57509994588916   -0.72971374704184   -1.51836354814908
H          -1.19241753158745   -1.34390722839240   -2.15010526939554
H          -1.46743168277166   -1.15332530870103   -0.63360071849892
N           0.21902664641650    1.19467373473586   -1.07282517672592
H           0.83916953262292    1.19882763811646   -1.88919458161119
H           0.75991994658303    0.89608025302757   -0.22871402631139
H          -0.23892865799221    2.09313046033051   -0.83859915854568
H          -0.53882531298141    0.47604843891217   -1.24947505170084
