    26
        -50.46282779  Gyration_radius:  2.48625269879 Dipole_moment: 6.997
 S           1.26129474120682   -1.16693737584293    1.20584550963816
O           1.85918139359318   -1.90022496320866    0.09566674048635
O           1.71650988525462    0.19079806373590    1.33087101033222
O          -0.19972543285053   -1.26666816327895    1.15230895144534
O           1.71179838222797   -1.93240125757692    2.51507284589605
H           1.71947575380144   -2.84361931301858    2.24031378599070
H          -0.93705737633167   -1.40361232650932   -0.25462421315400
O          -1.35462434075538   -1.44227335163325   -1.15605051755151
H          -1.78719321687080   -2.29526038422785   -1.21574076104569
O           1.45007502702467    1.73224660314502   -0.85557935288673
H           0.57739458663732    2.18088874708414   -0.67188566127744
H           1.71124851354622    1.34166979386078    0.00070176552602
O          -2.90156911108653    0.80627749747793   -0.61909826477450
H          -3.02441879379204    0.72248315231458    0.32987087456360
H          -2.42280697055874    0.01091364717830   -0.90256943320182
O          -0.90146989104696    2.61615761040711   -0.14494099107392
H          -1.65738550782374    2.16421194312090   -0.55852059527406
H          -0.88918162571270    2.26918902549104    0.76919196749747
O          -0.76572248629972    1.16582387744754    2.16497461604923
H          -0.67365123206717    0.25474292944813    1.83339269144307
H           0.11557242870058    1.38968733661232    2.47665129074547
N           1.07706967809094   -0.52652703287677   -1.98551928879553
H           1.51236246575745   -0.66356507573822   -2.89098344217380
H           1.51364062299939   -1.14220053438173   -1.24298247602624
H           1.21469332098847    0.50804457027781   -1.61305235731973
H           0.07448918532708   -0.76984501935766   -2.00331472505583
