    26
        -50.44592107  Gyration_radius:  2.58177588159 Dipole_moment: 6.945
 S           2.40372801013045    0.99964100755660   -0.38233978182448
O           2.49069020821052   -0.35580300893934    0.11683462130814
O           3.52964018977293    1.49611256991144   -1.07898557566601
O           1.10869614614030    1.07941874593834   -1.25539023395841
O           2.05515345808528    1.95536169147599    0.77373502718203
H           1.20772164612629    1.66073857793227    1.23498255070549
H           1.01415795909471    0.16308585355584   -1.67991469103875
O          -0.17259508936562    1.31769107780886    1.88917719018279
H          -0.37522757500245    1.98799585995742    2.54374506462592
O           1.08846692216909   -1.35507409222967   -1.96572553086503
H           0.31794244852269   -1.76204694798538   -1.51420137889937
H           1.83647431347994   -1.46542894918403   -1.36092450534268
O          -3.02093541978144   -0.78159362466899   -0.60824088136773
H          -2.25033070499940   -1.37630323522444   -0.60319055192427
H          -3.69188584291685   -1.20057429649869   -0.06780243057599
O          -0.80125389039990   -2.39472599466387   -0.32272000035919
H          -0.34027077157565   -2.01142662455874    0.47893618802848
H          -0.78542819823843   -3.34652965604066   -0.21197498341952
O           0.53292319961333   -1.34025782885747    1.64700250795345
H           1.35731189047296   -1.08499577990506    1.18761386839797
H           0.14752211566985   -0.50101736237072    1.93841491301845
N          -1.60664935200980    1.70109526265716   -0.21007655374639
H          -0.87436515320550    1.70437884406199   -0.91298680359635
H          -2.16317977393288    2.53791911215356   -0.32544642036585
H          -2.20373991314803    0.89363764925887   -0.39205827315147
H          -0.80456683248601    1.47870115854375    1.08153664484113
