    26
        -50.46802992  Gyration_radius:  2.56373143585 Dipole_moment: 2.901
 S           0.15343338870886   -0.57374519328586    1.99835162965499
O          -1.15411055670148   -0.23116842461547    2.49488453959601
O           0.09583730699065   -1.46563100656924    0.83697905199395
O           1.01394067242406    0.56712549569954    1.73053891283993
O           0.87160686434065   -1.39745691541623    3.14906510640136
H           0.14351408917995   -1.80952540414337    3.60347974895745
H           0.38549729738416    1.70595887134596    0.77704240757725
O           0.00061313176968    2.27783114044912    0.06512433950636
H           0.54728035277357    3.06425384771851    0.02830631122160
O           2.65849473623813   -1.05554868372526    0.26422231309840
H           2.60394022759753   -0.26564067540896    0.81688290953834
H           1.81257081240138   -1.50072883221435    0.45061424715418
O          -2.50918798998866    1.02017098919501    0.54054883674987
H          -2.16756616750834    0.50813391613186    1.29852622789329
H          -1.86333457129313    1.72448851360877    0.40593425696189
O           2.26848660913592   -0.63384087994355   -2.33871577086878
H           2.55505831894064   -0.74944822953753   -1.39931478411241
H           2.56352782641327   -1.41880953182034   -2.80185422782415
O          -2.80939431158251   -0.12283778477218   -1.85110585483872
H          -3.47695671776361    0.36329702274231   -2.33595564813552
H          -2.84244768608324    0.21322218440680   -0.92428407384717
N          -0.17215673696316   -0.04341319881291   -1.38960608935058
H          -0.14137452934030   -0.66911118764073   -0.54354873786064
H           0.65033204576942   -0.27407436414770   -1.98690276116104
H          -1.09727342100843   -0.16313420107845   -1.84568245538021
H          -0.09033101183491    0.92963253185659   -1.04353043574388
