    26
        -50.47027717  Gyration_radius:  2.39668718691 Dipole_moment: 1.904
 S           1.68370601301179   -0.74712032933575    0.44014169758695
O           1.69949166398442    0.42611530895769   -0.43853310425732
O           2.27704869338699   -0.50128761940936    1.71532637208629
O           0.28965608562893   -1.23676075101765    0.56225793315873
O           2.47900995521890   -1.87881932748934   -0.29129689214385
H           1.95461573657664   -2.08301812081784   -1.08148592240905
H          -0.05421591688359   -0.39044782403269    2.02911512749093
O          -0.15928696170330    0.30462972317355    2.70739265616361
H           0.67733832980498    0.27253087563365    3.18233006377030
O          -0.06063613392968    0.50355671549244   -2.48567722710474
H           0.68116198937948    0.55171948525823   -1.85467513992127
H          -0.16738017141183   -0.43829901011042   -2.66139252764968
O          -1.87781780468007    1.68594360630562   -0.92042253862910
H          -1.32986352132716    1.33264722945453   -1.65879810864548
H          -2.27212466525422    0.89440601591250   -0.50022058155563
O           0.27180040397158   -2.24294038200726   -1.84023781325060
H           0.08324973640202   -1.90323200329945   -0.93773325296906
H          -0.14717846645958   -3.10333670107490   -1.90514334568793
O          -2.35278055931346   -0.56054836037968    0.49291671290454
H          -1.43508836185337   -0.88061037349070    0.46911880531734
H          -2.56152977094510   -0.43608303345926    1.42102889007273
N           0.06725659973147    2.11846303057654    0.72797882402149
H           0.34691807119735    3.07789978150859    0.89854450065235
H           0.83291471814020    1.57537494984178    0.24493044298659
H          -0.12618811330032    1.60336952360690    1.61817946143013
H          -0.80007752937046    2.05584758020485    0.06635495658051
