    26
        -50.47027089  Gyration_radius:  2.49095105348 Dipole_moment: 3.346
 S           1.41058945551790   -1.19333965539493    0.88991124505456
O           1.19125442183337   -2.02612355158072   -0.28623130626755
O           2.02820414593462    0.07582060774753    0.57133943129432
O           0.19761805079816   -1.06612509994593    1.68428421418527
O           2.44979158234447   -1.97198623801404    1.79663953254761
H           1.99651233476586   -2.79150456088134    1.96487573935926
H           0.33810949137470    0.51415594373887    2.49628587747206
O           0.71007576211480    1.41429208082102    2.47351182788578
H           1.50794072355049    1.28787147497087    1.93810657620633
O          -2.03626293711669   -0.11177911732153    0.51411298479583
H          -1.29438291425539   -0.55927588121024    0.96354428275280
H          -1.80674717599764    0.83175155955917    0.51980440947754
O          -0.90811797652802    2.41716793515198    0.65662452266331
H          -1.27050944450054    3.26459886688611    0.91653543725169
H          -0.31491247236867    2.12177596883059    1.40068656419606
O           0.87550696084239    1.63457591703763   -1.26813021969311
H           0.17272537093216    2.03580696699199   -0.72502639145553
H           1.45973414174955    1.18377735898903   -0.62581893099070
O          -2.42932628425459   -1.06188534348886   -1.88736533283544
H          -2.39080689385636   -0.66069526528475   -0.97690254688401
H          -2.74034769112124   -1.95938862797617   -1.76032668601567
N           0.16945858782678   -0.68062553358763   -2.27934521632294
H           0.55534685503905   -0.89843184112285   -3.19119679288922
H           0.38923229807809    0.32656622456173   -2.00371646940843
H          -0.87346132533238   -0.84042670470030   -2.25332725148906
H           0.61277489270569   -1.28657348491955   -1.52887549062706
