    26
        -50.47059083  Gyration_radius:  2.47514570274 Dipole_moment: 3.228
 S           0.83711869994562   -1.47332951523993    1.37430759217579
O           0.83792881963608   -2.11613718105691    0.06553468717865
O           2.06183607020230   -0.76844564044704    1.65993394120522
O          -0.36250289525710   -0.67116904966560    1.58260322509562
O           0.73277403432335   -2.64452969294700    2.44086661215456
H           1.62498459185951   -2.97392589248805    2.45200230719228
H          -0.39827356734047    0.93078383654462    1.57121430551021
O          -0.42056624899721    1.92027876762577    1.51580393448238
H          -0.68683433024199    2.22772518883915    2.38331325435348
O           1.96114759347876    1.40156846176300    0.11490719153175
H           1.23004826577097    1.84493021185014    0.56498383382736
H           2.19421551169584    0.65949514371994    0.70715676580280
O          -1.45436667902477    2.50504464066741   -0.88534287905127
H          -1.18282787374203    2.32545026896126    0.04050799963272
H          -0.78882639471155    3.09882245106412   -1.23910188073909
O           1.31236925641122   -0.30377461453596   -1.82107583893894
H           1.28476242986388   -1.07690903715225   -1.21968707919450
H           1.65750863863715    0.42562247399347   -1.25662752881687
O          -1.76035497649099   -1.88004648388078   -0.28777946751824
H          -1.66457580647114   -1.40922045820723    0.55829001821173
H          -0.87896603808628   -2.29302003873184   -0.36698727860483
N          -1.24993884320293    0.06205591502986   -2.01085326682727
H          -1.60191062448863   -0.70049433366112   -1.35853307891749
H          -1.65918856213776   -0.03647733736457   -2.93293779007695
H          -1.45159583544441    1.00712760795988   -1.61000813898785
H          -0.17396524621638   -0.06142569264545   -2.04249146068778
