    26
        -50.47679056  Gyration_radius:  2.36811674837 Dipole_moment: 3.210
 S          -1.27690552546947   -0.55129262241810   -0.68062092966401
O          -1.03245524237124   -0.70413766632419   -2.09957703223375
O          -2.78840370426707   -0.74873510215463   -0.42458682485207
O          -0.54789832613398   -1.54810598804833    0.10447890533741
O          -0.91840754838097    0.80023365734359   -0.22059980669058
O          -0.49656496363353   -1.04278649508543    2.66306738897486
H          -0.56763415833599   -1.85757503151929    3.16229798427374
H          -0.48665264416505   -1.30413915987098    1.70869291177616
O           1.25920447842345    0.79536585465001    1.34091036218414
H           0.99023470547959    0.35784501954269    2.15666062913184
H           0.44140284110331    0.82598109742334    0.80324689900432
O           2.07960074631238   -1.21881373754720   -0.23890971133826
H           2.07881169846158   -0.48204008556236    0.40932595587610
H           1.18592528908925   -1.60306183160095   -0.13487366280962
O           0.97630295727434    2.39751196996591   -1.25639642314126
H           1.49930804420690    2.49085856358447   -0.45402210594003
H           0.13065531076860    2.00502520012898   -0.96096065022445
O          -2.61283056061295    0.46503760586981    1.86035524132715
H          -2.08378988275996    1.08969313804657    1.34578382434749
H          -2.92031695953171   -0.36480449991949    0.48179985427233
H          -1.96397377370920   -0.04678922887241    2.38174956533967
N           1.43609769025934    0.05199158190829   -2.42348713220307
H           1.87733993149118   -0.50840761546805   -1.62293553049055
H           1.90735019186501   -0.08681840135655   -3.31028362559516
H           0.42519408963723   -0.27533160892149   -2.45701468165708
H           1.40840528497938    1.06329539616632   -2.13410140504210
