    26
        -50.46592218  Gyration_radius:  2.4870109289 Dipole_moment: 4.961
 S           1.74565293046665   -0.95933212178317   -0.52121816761350
O           0.38763207341885   -1.41212830555131   -0.12805858361493
O           2.51441476712981   -1.99898915273110   -1.12336903347107
O           1.43873443809541    0.13905355210733   -1.65882081693166
O           2.36746642077281   -0.20626112602745    0.54095432110517
H           1.56112568583337    0.90075789468185    1.29830240112919
H           1.07581560392672   -0.43555462192163   -2.35767219111853
O           1.00413665901552    1.59102742830505    1.75881476049776
H           1.60855150320422    2.07088965753531    2.32731002206361
O          -2.89544224950993    0.12823243472869    1.62195325224720
H          -2.08318508795284   -0.27961726714347    2.02574769849599
H          -3.11315382590296    0.88655976997229    2.16583788579671
O          -0.50412368482712   -0.67256185721073    2.35787538327211
H          -0.00586756754113    0.16004743196949    2.38774935093583
H          -0.14112331492662   -1.14682181612570    1.59042794619677
O           0.07002890107599    2.34489287596673   -0.65987312205407
H           0.75757281156612    1.88872358665928   -1.16660330482096
H           0.36348230124238    2.28197317786708    0.27223641550233
O           0.29479172015297   -1.98788962478743   -2.73689886134015
H           0.18897169326773   -2.10184594706177   -1.77689261980322
H           1.06470561063590   -2.52206499913357   -2.95489218219640
N          -1.56325859514939    0.27043285285056   -0.67102013691843
H          -2.03928359136691    0.04746076761792   -1.53870700316163
H          -1.05131799090335    1.19963634062742   -0.72990814126796
H          -2.22792167483344    0.27072099439492    0.14767860408004
H          -0.81840553690205   -0.45734192584170   -0.47095385700580
