    26
        -50.46677510  Gyration_radius:  2.43532137109 Dipole_moment: 5.262
 S           0.77815314426118   -1.22693839504096    0.82588514279293
O           1.84887156521739   -2.07311738192636    0.37541363103422
O           0.40956048425585   -1.32402839783258    2.21356954341462
O           1.32781299092036    0.29157917485385    0.63149329853580
O          -0.38873343686997   -1.25421594166571   -0.06440428686360
H          -1.31164720055929   -0.31841928471091    0.99542563674304
H           2.10294844239612    0.27112639807670    1.22932701669465
O          -1.87315396610823    0.32319383932199    1.47665819779200
H          -1.68571814348483    0.14414601050959    2.40110515003233
O          -0.47643945554286    2.29750151969025    0.28774540698407
H           0.34807351185933    1.81893174240767    0.47627838212870
H          -1.14853992492630    1.79421388627188    0.79426751387661
O           1.03543760259783   -0.63862648571357   -2.19533902190836
H           0.56512050573755   -1.05632631497667   -1.44579816082631
H           1.96466826362155   -0.70835312937018   -1.96789770883285
O           3.06522789128348   -0.68258458434419    2.35017831009878
H           3.12167293699034   -1.40200804895418    1.70338278651889
H           2.30071128274961   -0.91781587536903    2.89317950838539
O          -2.69360600950863   -0.44715409177245   -1.24580248969507
H          -3.06078617976723   -0.09151602352604   -0.42865340316454
H          -1.98581718691581   -1.04503787877873   -0.95190701547951
N          -0.84900094624692    1.27025844421414   -2.09913509781799
H          -0.02194929478194    0.64390802684136   -2.25214697426740
H          -0.68929962736355    1.81903949512632   -1.19371828081320
H          -1.00803285681391    1.87630010258964   -2.89617238927303
H          -1.67553441299755    0.63594320408269   -1.91293471609425
