    26
        -50.44659619  Gyration_radius:  2.67026016672 Dipole_moment: 9.904
 S          -0.21149152445262    2.56647559092785    1.00090534407000
O          -0.51462156476077    2.82078770938421   -0.41183670665849
O          -0.54100865809161    3.60754623075640    1.90532101837497
O          -0.76926206694133    1.24508469255858    1.38608587766363
O           1.36989542802570    2.31774024093331    1.05259120380054
H           1.63998176586061    2.14993574789265    0.13110494712827
H          -2.19854131102458    0.52015325533012   -0.10128173621157
O          -0.05778944533693   -0.79396326164656   -1.76092027180157
H          -0.14853972930575   -0.89918529020903   -2.70970814268420
O           0.28192133341791   -2.84197683595513    1.94152618037379
H          -0.18124764768872   -3.09405184384177    1.11533647147088
H          -0.38923332356057   -2.78732153253856    2.62426081979477
O           1.50365289101654    1.60847959988855   -1.53201742831659
H           0.73923473402285    2.21053270857258   -1.41969948863087
H           1.12035173236220    0.75839393185850   -1.78666815085284
O          -1.96169517287434    0.74840641554025   -1.00711542825740
H          -1.51107667190654    1.62391593361714   -0.89984616706455
H          -0.83979531773078   -0.20704416342270   -1.47823574315684
O          -0.86063923587408   -3.09755047179793   -0.47979744866655
H          -0.77541503466367   -3.83624214262903   -1.08354617252217
H          -0.60209047289358   -2.29237812118205   -0.96918250190467
N           1.00692514163009   -0.48184670410562    0.89328107671018
H           0.95689588534374   -0.65492377286268   -0.11383659231903
H           1.89778898645563   -0.06112729607642    1.14219735220687
H           0.20933645067745    0.25028044891810    1.15227237242866
H           0.83646279833199   -1.38012104994436    1.40880930502755
