    26
        -50.46373285  Gyration_radius:  2.51940361768 Dipole_moment: 7.957
 S          -1.18549467463357    1.22473520286268   -0.24131386681554
O          -0.10827999736674    2.19308249350311   -0.28733167682852
O          -2.44541285657588    1.73553364645934    0.21500171269847
O          -1.36717954140703    0.68553536289355   -1.72917218653433
O          -0.75884653743020    0.01248822950528    0.48094407556283
H           0.26096833609252   -0.51770758877529   -0.72751258573165
H          -1.68537678335789    1.49710592677374   -2.16754637461038
O           0.91064455604284   -0.95129396387601   -1.32737779833960
H           0.48210531160335   -0.95153842087662   -2.18560498124842
O          -1.38716762022100   -2.45409573442688    1.17276469865836
H          -1.90613927752994   -2.42124363925799    1.97803270180722
H          -1.33425487703624   -1.52665287414933    0.85111875629082
O          -2.03766277817136    3.22184049585188   -1.96273350512151
H          -2.54940872781431    2.98567523294501   -1.17163615427197
H          -1.17261854631427    3.47266063808483   -1.61660875881972
O           2.34723903517080    1.17708610337416   -0.05262837320942
H           2.25429233642063    0.50272046198846   -0.73613443523206
H           1.52631148012153    1.70990756254683   -0.12070882794478
O           1.43255358392225   -0.13444934608229    2.03462693767769
H           1.98395379874568    0.41073672899008    1.41618148570583
H           0.52532255381723    0.08145605322003    1.74879782908063
N           1.26741317262046   -2.43264900064405    0.88862171254767
H           1.90690894815631   -3.19083093311127    1.09511537734153
H           1.31159890679501   -2.13151058557023   -0.10327132476286
H           0.26641168734752   -2.67775181843064    1.08057018982303
H           1.46211848096989   -1.52084023378342    1.46780537231600
