    26
        -50.45755909  Gyration_radius:  2.49753907842 Dipole_moment: 8.540
 S           0.03340148018037   -1.33926277271032    1.96548250796985
O           1.09439198333770   -1.11004363323513    0.94532944196938
O           0.53848699599081   -1.87686599526411    3.18005090163915
O          -0.55501223363092    0.11862943409113    2.24151483612359
O          -1.07417377520037   -2.05807598387276    1.35165290150456
H          -1.83873703578126   -1.55135379862563    0.12776979742705
H           0.26060153258631    0.67069275623416    2.31584030904082
O          -2.23487643724887   -1.23568764296556   -0.74721281988305
H          -3.05455981902689   -1.72054371358536   -0.85051561480592
O           1.70095853181435    1.32699586394534    1.77215362160364
H           1.86742639244275    0.41718188180479    1.46958211936772
H           1.42238629982129    1.81610154510878    0.98030356202676
O           0.50760192826875    2.36130089689785   -0.56027791483329
H           0.36649626771980    3.30316159517060   -0.66724373891797
H          -0.38621846698390    1.97672658915596   -0.33182308279688
O           1.45728764794188    0.80116547214277   -2.51023911718129
H           2.41186482611675    0.83971725605973   -2.42855840673950
H           1.10218851119231    1.43929413531286   -1.85014704026081
O          -1.78394339415771    1.32312971026798    0.13314784764108
H          -1.53949168609411    0.98600200020260    1.01317076464139
H          -2.08356838188695    0.53755848532000   -0.35346876720452
N           0.35588671093825   -1.41766825942042   -1.46988073678045
H           0.68414026634369   -1.33324320920950   -0.42482087376730
H          -0.68108891459311   -1.37217533082012   -1.44952734824102
H           0.75990902710355   -0.60306398553869   -1.99255621914224
H           0.66864176245718   -2.29967330658982   -1.85972694067475
