    26
        -50.45102347  Gyration_radius:  2.43941876505 Dipole_moment: 5.307
 S          -0.59589705536525   -0.42234796234743   -1.48031207662241
O          -1.07183948375726   -1.77947229934882   -1.43949546431019
O          -0.73549471161437    0.27467612216309   -2.71676342773367
O          -1.26827462741113    0.37617560871603   -0.35666351922670
O           0.90735082503736   -0.43450318297882   -1.09890197657090
H           1.08455437467900   -0.05563745281746   -0.17371265006764
H          -1.67459166054669   -0.31513123196740    0.32128102109376
O           1.41393166851697    0.52921878347969    1.20405538275462
H           2.33155232873863    0.80840181311857    1.18820427061670
O           0.26633327880240   -1.87339840600732    2.12457273870870
H           0.72983755950685   -1.03340514294693    2.00177597794940
H           0.58041748611042   -2.46671546857578    1.41141685417071
O           0.86665432009171   -3.15092381793078   -0.18329528092862
H           0.12147550303305   -2.79957500009315   -0.70610692577900
H           1.65854313067958   -2.85454507028702   -0.63613559840474
O           0.36094537047724    2.61167219553604   -1.98403876583965
H          -0.03756819096598    1.76733912237534   -2.26564120177357
H           0.36285583519066    3.17026563648278   -2.76370757666924
O          -2.09810160050921   -1.42947943517554    1.13789831837618
H          -1.27007348024987   -1.63932171835870    1.66346661606127
H          -2.16243410054957   -2.11034315792159    0.45765377952334
N           0.01408877871144    2.67347836897481    0.88661801114205
H           0.15631680365207    3.55382541678709    1.36505752166960
H          -0.95320285882548    2.39523503608854    0.99626131230401
H           0.16491700600639    2.81484862581074   -0.11242578063034
H           0.84770350053314    1.38966261721924    1.15893844018703
