    26
        -50.47315832  Gyration_radius:  2.38439062037 Dipole_moment: 0.897
 S           1.14991175110791   -1.10432866568965    0.90353921534580
O           0.63588373469022   -1.59576569656996   -0.36409388603418
O           0.81125567688188   -1.91642355913306    2.03377325433575
O           2.74530444139235   -1.14445243682478    0.78475913616791
O           0.82824481001533    0.31353527575655    1.08180147578932
H          -0.30033243101866    1.73095639555097    0.86126422954792
H           2.95797505125882   -1.92734920449898    1.28193974171294
O          -1.16177363535252    2.15619791383834    0.71363038431827
H          -1.74178948643329    1.76588362765737    1.37576216835262
O           2.52737888296156    1.30970620545904   -0.71709202230155
H           3.32485317537487    0.78759415667204   -0.60779182204735
H           1.94422059483773    1.04076093107749    0.01713185488612
O          -1.53200320075043   -0.41023049784401    2.16137933528370
H          -0.62665239083361   -0.17594729360589    1.89022211258154
H          -1.41163917648672   -1.15637354081674    2.75458719583510
O           0.77623498561569    0.14099515134079   -2.38180800917460
H           0.77788329063377   -0.63489014031614   -1.78400460533655
H           1.46019842045048    0.72868947098417   -1.99958656448024
O          -2.03283871007277   -1.38909376942709   -0.32556193075915
H          -2.10590873234308   -1.10111382949885    0.60496160284855
H          -1.10658131503502   -1.68917667434643   -0.41215340533461
N          -1.60594864292132    0.87588002819800   -1.59507927977624
H          -2.25478720048999    1.23357198923726   -2.28623358864850
H          -0.64101215798300    0.67651786058373   -2.02292556098278
H          -1.48740347045003    1.53619403572134   -0.78716367625476
H          -1.93067427502696   -0.05133773347470   -1.18125733587702
