    26
        -50.46935335  Gyration_radius:  2.39984166456 Dipole_moment: 3.543
 S           1.08190666210405   -1.37064917009735    0.54740856359759
O           1.58200392860357   -0.43233127819409   -0.47266848642441
O           2.05915897469367   -1.70001328197550    1.53501134041581
O          -0.15321635239905   -0.82501336337682    1.14417038428143
O           0.65189365567608   -2.66097327294346   -0.22190686395763
H          -0.02177166462913   -2.35634706557102   -0.86404694008289
H           0.49525067310614    0.01065138277289    2.49596247142217
O           1.17746319555264    0.55324529871003    2.93927883241587
H           1.93559284759916   -0.04291540552773    2.95852877952527
O          -1.01974143710989    2.17283236304909   -0.64821436503340
H          -1.66701034593000    1.52976352914343   -0.31959997377041
H          -0.65671344637964    1.74723515189106   -1.45959166619464
O          -2.36610210283128   -0.16159729786325    0.06705484528426
H          -1.50907759934579   -0.39760647030000    0.52442590358512
H          -3.06207008548361   -0.34168214134315    0.70057528959457
O           0.10082141894832    0.56645230715998   -2.47221654532616
H           0.75254223871884    0.18680816438508   -1.85064992149036
H          -0.47451318081868   -0.17123939141010   -2.69832888282715
O          -1.35753695332146   -1.81177719330105   -1.80874185989031
H          -1.84470518853235   -1.20410865792563   -1.21004246718287
H          -1.93571204073533   -2.55524394792460   -1.98927485356811
N           1.25873401196574    1.88835621501482    0.63233418979918
H           1.22069279335794    1.61408751586407    1.64545009745891
H           0.29472055972223    2.13292046553644    0.23883582061696
H           1.92379528308563    2.63506854887983    0.46329152540544
H           1.53359416448094    0.99407698540593    0.12295480233710
