    26
        -50.47771710  Gyration_radius:  2.3699180119 Dipole_moment: 4.706
 S          -0.20863923039658   -1.22252594675692    0.79410123025110
O           1.14850665570855   -0.89181694604934    0.35331720173483
O          -0.49742819488752   -0.69251740916206    2.10762911419426
O          -1.19062573223827   -0.74836244897472   -0.19034256365036
O          -0.32795414473655   -2.76920106372673    0.85044166589242
H           0.03101131938486   -3.04876617051544   -0.02332740259779
H          -1.98747649510165    0.52141684734248    0.52377076392243
O          -2.19098336774403    1.29670705684345    1.09493682734354
H          -2.07479996386523    0.94619948481494    1.98488107095118
O           0.87431884666368   -2.83143543262653   -1.48252845356309
H           0.40020639514476   -2.31358646652489   -2.15418053888527
H           1.40344828767503   -2.18237065024114   -0.99456749914247
O           1.06516920442849    1.05043254622309   -1.43579949854030
H           0.53197749668921    0.65020461145614   -2.13753254484521
H           1.21853633145719    0.31496812790567   -0.80157870554725
O           1.43362739512993    1.07256397674883    2.30980122846604
H           0.70990743919896    0.41629104283256    2.43558873683847
H           2.08505735344766    0.58484141976275    1.79449759699602
O          -0.60512157010609   -0.81008672248110   -2.71807751466716
H          -0.90370262009241   -0.78805898004176   -1.77526105773742
H          -1.39822045759437   -0.88716296820432   -3.24997389317574
N           0.09381423974819    2.50325236299834    0.53695382574755
H           0.15625379682455    3.51471643489446    0.50906754542955
H           0.70164293373942    2.08611717837260    1.30366065257253
H          -0.89488045146119    2.16770763946943    0.73309632454811
H           0.42635454297547    2.06047247564908   -0.36857408252338
