    26
        -50.46060894  Gyration_radius:  2.58643371641 Dipole_moment: 5.764
 S          -0.48204650688874   -0.17746655407749    0.47515988508331
O          -1.87163229045317    0.21275200810975    0.38385671468826
O           0.14805271907427   -0.38267424455644   -0.82393281354132
O           0.31125428564009    0.94482114407879    1.20449017134463
O          -0.28858119948419   -1.38928408870534    1.29644087765256
O           2.32057723127367   -0.89962034379289    1.77602301117529
H           2.39362439218307    0.04393615602227    1.93926848046571
H           1.36066825514631   -1.07407755641169    1.77363478539270
O          -1.68886993250220    1.14569111910017   -2.09903486778382
H          -2.05604674689324    0.80640074905435   -1.26270224278483
H          -0.83765815181369    0.69059437690169   -2.14446075029974
O          -1.29556179029452    3.64304071972210   -1.24223792996263
H          -1.97806120736092    4.20526140946869   -1.61169055065918
H          -1.40427537531298    2.76060657065471   -1.67024017662061
O          -1.50390473727567    2.71619483232489    1.26371558543034
H          -1.38801650986841    3.20292302393546    0.41504961875362
H          -2.09575857202571    1.97495788807259    1.06186890161562
H          -0.31751774381436    1.73215142316092    1.30325671241211
O           2.47959675333069   -1.57793901940605   -0.80024583466122
H           1.72850024913139   -0.97571167882165   -1.00883480883680
H           2.74198106701704   -1.30966323156791    0.10795916496846
H           1.58212583134088   -2.70928156812931   -0.46876487596533
N           0.73781477962911   -3.30539327764069   -0.07386543485759
H           0.21063296529971   -2.56999746100179    0.52439907450725
H           1.05259533076038   -4.07591942897151    0.50690293344331
H           0.14050690416116   -3.63230297753478   -0.82601562096898
