    26
        -50.46174641  Gyration_radius:  2.5737217924 Dipole_moment: 1.874
 S          -0.01673588572200   -2.29546635462377    0.98652689429229
O          -1.11402878291050   -1.47488140282752    1.49420633632857
O          -0.11251936687279   -2.54102081077613   -0.43429559617526
O           1.26596369438532   -1.74220771568079    1.39740554039774
O          -0.14537039470005   -3.70529509193837    1.69622103760361
H          -0.02812358359418   -3.49913173231259    2.61850096404069
H           1.85295403638934   -0.66120285703336    0.34251498815674
O           2.10404839392348   -0.02757704056370   -0.37592117856413
H           2.70206206980578   -0.51349782047171   -0.94574834287964
O           0.68507706596130    2.42492874886255   -0.27066102185421
H           1.57095719003241    2.06340791146421   -0.37434161917707
H           0.34806116166758    2.00371841866925    0.54210758016722
O           0.09851888620660    0.86418501757592    1.91700736699461
H           0.98608170306609    0.65498205466901    2.21600030362567
H          -0.34276163016418   -0.00548543391570    1.83372174332706
O          -0.32898228750930    2.13009361557472   -2.82122665399974
H          -0.65705789267642    2.93595617302040   -3.21959030987412
H          -0.00430436866681    2.37505655046573   -1.93340466930449
O          -2.38559278671771    0.57661903004280    0.33225351669452
H          -2.19726274726372   -0.25136061542465    0.81441856154585
H          -2.10759761045770    1.28524199595314    0.91982986255269
N          -0.44222884864445   -0.12306273064112   -1.36964440207482
H          -0.45337882983560   -1.16376137099760   -1.25304452160478
H          -0.55491846311685    0.22696212015571   -2.32439034254221
H          -1.21319622461211    0.28103115168710   -0.77230109429309
H           0.49033551202381    0.18176817906541   -1.01614494338791
