    26
        -50.44326808  Gyration_radius:  2.53438229715 Dipole_moment: 7.217
 S          -1.83244178898468   -1.69326246787325   -0.49649108930308
O          -1.02501449672222   -1.84725908687741    0.69002350997924
O          -2.92229156369821   -2.57251072074278   -0.67924042668612
O          -2.27974484818987   -0.20673170811069   -0.55667830076158
O          -0.90042867921253   -1.79678697124979   -1.74142489925316
H          -0.16124697129889   -1.14637623439225   -1.64526858607745
H          -1.98527160058714    0.22054192153988    0.34005465337574
O           0.98599516931777    0.04120234971475   -1.60962251783057
H           1.48050407911402   -0.00895254399607   -2.43005244121220
O          -1.38904921387638    0.68809383531200    1.60682452746817
H          -1.15373354985825   -0.18204180296711    1.95411748757028
H          -0.52829124844694    1.13504184883700    1.39291906338675
O           0.99670308240309    1.61158253027904    0.90989028952127
H           1.23114578959083    1.08489043266006    0.13723217708486
H           1.49278104218787    1.21180635169622    1.65061719359484
O           2.19610655561678   -0.07769484516299    2.61079204076291
H           3.01282989362594   -0.28513826563725    3.06455932554568
H           2.04280182407731   -0.80028892356751    1.96163738178125
O           1.64908162447847   -1.75916154015386    0.58939762176925
H           0.70148527181581   -1.95580352532614    0.71569719583086
H           1.69563687147179   -1.24723877331730   -0.22489913800971
N          -0.71324526077472    2.01715464433883   -1.68421447986388
H           0.35101315124703    0.83550503698256   -1.69973712568993
H          -0.52277676140359    2.57855417027360   -0.86190165879117
H          -0.84046553304771    2.63824633626750   -2.47266429162226
H          -1.58208284883593    1.51662794146647   -1.52156752257380
