    26
        -50.46678326  Gyration_radius:  2.48076145276 Dipole_moment: 6.308
 S           0.71883934624496   -0.72086716882617    1.32059115857228
O           0.47089796484150   -1.52984526085444    0.12081717839803
O           2.09817383517759   -0.41002150257357    1.52756736409508
O          -0.15561188485705    0.45689182415339    1.30013809163799
O           0.22369128317149   -1.59954044810220    2.53562005256070
H          -0.70976537955245   -1.75101595596012    2.36500744992159
H           0.89948081161251    1.80433816582489    0.99072572660454
O           1.70181694485737    2.26321899937642    0.68657927076937
H           2.41566612757940    1.71872226961887    1.03444071620001
O           1.32953228445738    1.53165515690679   -1.86189327087136
H           1.97195318090265    0.79238441257213   -1.82336768676848
H           1.45202394770182    2.00194415037655   -1.00663636159345
O          -2.40606898443450   -0.66618705043088    1.69836992616721
H          -2.85777388678905   -0.21836970949519    2.41707182767104
H          -1.56927117614554   -0.15128163788441    1.54152159854665
O           2.68707245320027   -0.71906172787114   -1.20907925894545
H           1.94166054445302   -1.19104642292120   -0.79993354302308
H           3.27197549287026   -0.53097658182136   -0.46956090065635
O          -3.22863912662632    0.10159706460030   -0.77134162567796
H          -3.91691177409626   -0.48492212186126   -1.08860797271316
H          -3.01700167938295   -0.18582952073877    0.14231494932793
N          -0.68750924309216   -0.09628402199834   -1.74595248207834
H          -1.64138336445405    0.19238869439815   -1.45242664960073
H          -0.72498106919375   -0.58863696497584   -2.63310374207178
H           0.02498816879621    0.71606971197411   -1.81841836829008
H          -0.29285481881824   -0.73532436499768   -1.00044344779119
