    26
        -50.46269253  Gyration_radius:  2.42402254882 Dipole_moment: 7.008
 S          -0.28926786660377   -0.98850322239451    2.02014093338255
O           0.16694420650976    0.29793414588510    2.54432977919988
O          -0.11320841865951   -2.11210968679834    2.86743660242290
O          -1.85285635469047   -0.81897470679472    1.74660263481707
O           0.28368575723910   -1.17808095164407    0.66700619252372
H           1.40127874817584    0.04925122204289    0.66656369237657
H          -1.93660690854396    0.09918163386127    1.45140113407754
O           2.06458188289831    0.76445670002629    0.53207841594191
H           2.19468944390210    1.12755270661080    1.41101294540670
O           2.04255260198707   -1.36558643483416   -1.40337961196456
H           2.61965265624804   -0.69288168127704   -1.02319643324059
H           1.50390636505188   -1.67198790001964   -0.65419321202999
O          -1.68267824107105   -1.61967166214389   -1.00419385881463
H          -2.50223796734774   -1.56603540490068   -0.50874553886110
H          -0.97120120597734   -1.59836367726780   -0.32259151655879
O           0.28458100495972    2.09797246852120   -0.96896685684624
H           1.07251633359937    1.77195830863983   -0.47986240912809
H          -0.41946294181505    2.11842763570236   -0.29459437071936
O          -1.34460245680699    1.79110555919542    1.18869135665648
H          -1.70474085431197    2.49473242989817    1.73133166659227
H          -0.65595891210480    1.32505749130212    1.75533172689399
N          -0.04300012068694   -0.05899659604690   -2.41586377464795
H          -0.83788565046156   -0.60604923556391   -2.01177305444130
H           0.02698757393621    0.88284770476555   -1.90649136043540
H           0.83473314613771   -0.59987334604624   -2.17025621562049
H          -0.14240183157340    0.05663650928821   -3.41781885698328
