    26
        -50.46798684  Gyration_radius:  2.5211446224 Dipole_moment: 2.243
 S           0.32311469012923   -2.10793361796507    0.26644310006955
O          -0.19185981626555   -1.40960038529934    1.44211674111882
O          -0.33097804213743   -1.63949499663561   -0.94311847955957
O           1.76255780438622   -2.10788587409055    0.17832408332164
O          -0.09949026044865   -3.62529596910681    0.46347814053537
H           0.63360660124537   -4.05773248960781    0.04007561979593
H           1.03611317978732    1.06138157142021    2.74425756754129
O          -1.57280605581927    1.92932458974592    0.63058386316696
H          -2.14697275854544    1.18301226957523    0.89204542775795
O           2.46229755557957    0.43913727599326   -0.24120864746946
H           2.33632236534648   -0.52761903816782   -0.17835497342196
H           1.96066435097710    0.80565411725880    0.50426932962567
O           0.71218828977695    0.99862117820558    1.84440879727128
H          -0.75163122885999    1.80481713250181    1.13820044535753
H           0.38858257720350    0.06956253574757    1.73271865848721
O           1.55448131844722    1.70185933557984   -2.35105689356785
H           1.84024025760957    2.60640133324392   -2.21415144552639
H           1.99984768653747    1.16777853374848   -1.64107946545816
O          -2.64871871514902   -0.49735347304426    1.07239395033542
H          -1.76400219315915   -0.91359878973259    1.15867618819396
H          -3.21664122948855   -0.94872842794183    1.69772140169600
N          -0.86839606084169    0.82453745052864   -1.66235361086376
H          -0.67691412594674   -0.17730202920612   -1.37815593376493
H          -1.58942572868839    0.83756107036960   -2.37497930105400
H          -1.18404007568535    1.35491908804445   -0.79389212614263
H           0.03185963400409    1.22797759885378   -2.02736242741310
