    26
        -50.46682762  Gyration_radius:  2.46537985285 Dipole_moment: 2.723
 S           0.91665994341043   -2.08949488810884    0.34909897789395
O           0.84964548042170   -1.48579129014476   -0.98420296795037
O           0.87394438415218   -3.51473097674349    0.34522225084233
O           2.34142767457326   -1.67211561758042    0.93942822687928
O          -0.04604118597676   -1.43884851196200    1.23803465177627
H          -1.52294863910514   -0.84382123111736    0.94007273908578
H           2.84454963564032   -2.44339700861540    0.70586839870306
O          -2.38591497162124   -0.43436797074057    0.68269310261455
H          -3.05321521375950   -0.85215349637051    1.22855222289927
O           1.90210510524870    1.01367033935283   -0.85115414117322
H           1.80634365593717    1.12942018974492    0.10957524965484
H           1.68154794741331    0.07930188100630   -1.00739574548871
O           1.14977721118011    0.82550119050694    1.79421438093954
H           0.72022362682272   -0.04518082904728    1.63550764998409
H           1.88331362243357    0.65288197017703    2.38596271361250
O          -0.33501223807019    2.20255538571903   -1.62442092543504
H           0.60383041728915    1.93406967875766   -1.46635687385864
H          -0.68190409277992    2.42128563220147   -0.72889654539761
O          -1.16815750412645    2.13390085456446    0.91255074679911
H          -1.73434303334600    1.34933747422603    0.93047581155168
H          -0.34975825173053    1.87493681735017    1.35996925478148
N          -1.28315640569506   -0.17368821184351   -1.80094476549449
H          -0.44366448602303   -0.76250332468248   -1.54817122320209
H          -0.93038042651172    0.87530067361294   -1.82798311270572
H          -1.67645434030230   -0.46753527975301   -2.68732490393079
H          -1.96241791546690   -0.26853347053405   -1.03037517337370
