    26
        -50.46745645  Gyration_radius:  2.52861498706 Dipole_moment: 3.513
 S          -1.17772758489569    0.80055308930170   -0.74547876074191
O          -1.44563298814745   -0.61051623352012   -0.45602981744243
O          -1.90753394099834    1.28580271050317   -1.88022264785900
O          -1.64085547282232    1.59179389959882    0.54750396421447
O           0.26447182885608    1.04387605424732   -0.79243996267766
H           0.68777015573017    1.33102456805994    0.79527780465109
H          -2.60875459599069    1.45549874545038    0.52612012500717
O           0.96770027309736    1.32038239726263    1.73810011329642
H           0.41296915758102    1.97130038089249    2.17173650385724
O           0.02410673485812   -1.31809473681403    1.64938946654568
H           0.25680525537896   -0.45201053948764    2.01985701312466
H          -0.67502396645918   -1.14545683682505    0.98511408772218
O          -3.96112326775352    0.68913594280896   -0.30219604781752
H          -3.74816404132261   -0.24550979748344   -0.21898133904211
H          -3.52742920642206    0.97390591006917   -1.12622811365926
O           3.52653820694423    0.44305536114901    1.04994840157491
H           2.72309911863643    0.77888838893834    1.48272604691843
H           3.98347559165252    1.20957397136149    0.70048735715972
O           0.08106513159112   -2.06493962349426   -2.14929058726562
H          -0.53956090674166   -1.60847505876901   -1.54944103647682
H          -0.36707659335731   -2.12493012072396   -2.99338557453100
N           1.77098218206311   -1.08975573369012   -0.30413827540994
H           1.76307515611382   -1.79070202000174   -1.04569974531330
H           2.69878954567249   -0.77831124173116    0.02812579328525
H           1.24623668861647   -0.24750723860545   -0.65485130502580
H           1.19179754761560   -1.41858224811762    0.52399654609025
