    26
        -50.44441392  Gyration_radius:  2.54048917617 Dipole_moment: 4.676
 S           0.24039987345515   -2.73640328557046   -0.19652392135679
O           1.22745263421538   -2.06555912771595    0.62604097493475
O           0.13776158478149   -4.13881288930084   -0.05577916324030
O          -1.12067621054406   -2.03380051977502    0.09806407138160
O           0.48130272305389   -2.37891806876659   -1.67550147530939
H           0.37825332704442   -1.37654724085807   -1.77500647106887
H          -0.95489416116840   -1.40613275621875    0.88877549708976
O          -0.58892149332934   -0.45514003914453    2.00478008547894
H           0.18795744700009   -0.93686312875324    2.30417179326832
O          -0.94580704916564    2.87600706580389   -1.16327781511769
H          -0.45852257733551    2.51690409159731   -1.91024219285315
H          -1.73733870824918    2.33258068391585   -1.07592766045915
O          -2.23317024425390    0.47079998241056   -0.36556627126637
H          -2.46447534010187   -0.45241919255877   -0.51392264797403
H          -2.12691864083333    0.56696534751530    0.58661933883819
O           2.37988011687344    0.18963244857927   -0.06139222460495
H           2.02983811663562   -0.66691348548280    0.27790056809096
H           3.21144163900519   -0.01703401464380   -0.49095840599771
O           0.21256333045218    0.16368387234324   -1.66987416215065
H           0.97279217570655    0.38238726421213   -1.09285972761174
H          -0.60369902720088    0.33789373042155   -1.16395777083336
N           0.36376860868185    1.86630133125477    1.25561686728370
H           1.30073013329311    1.63063109690177    0.94378286312014
H           0.44775992141148    2.51762230096424    2.02531730796555
H          -0.09972586867924    2.35534926919971    0.48870863383203
H          -0.23775231076039    0.45778528366982    1.71101191855362
