    26
        -50.45194966  Gyration_radius:  2.61337611878 Dipole_moment: 2.668
 S           1.33054186683677   -1.76362699517575    1.40425341392022
O           1.52061261215040   -2.32681946499667    0.07175797202459
O           1.86285664827196   -2.52431459183482    2.48703449481534
O           2.22072959588062   -0.39034824416161    1.38678698422907
O          -0.03364749615488   -1.27803388101784    1.56398183496407
H          -0.40262754309834    0.24234430802001    1.88805241276651
H           3.02292843757652   -0.72431881332973    1.77439067472224
O          -0.77822278278773    1.15968741597725    1.96817529857154
H          -0.90920951384032    1.31567081083264    2.90423603020224
O           1.28493757607501    2.06306150986106    0.44047693801050
H           1.80994874517677    1.29670133433483    0.71279578485805
H           0.48012172920254    2.00278513085962    0.98549744539180
O          -2.16924325119631    0.46014159187561   -2.65999135035719
H          -1.47632952786127    1.11959143993804   -2.54568572722827
H          -2.63240869365744    0.40236381269005   -1.81906930740352
O           0.51983930505248    1.48956601594122   -1.99724159492586
H           1.19523899462847    1.79076387885694   -2.60563720261511
H           0.79629562927186    1.80295681475365   -1.09391521745579
O          -2.32998840463103   -0.31835939661047    0.23431670096769
H          -1.96153753473245    0.42478241360195    0.74352108019719
H          -2.29355531898277   -1.06618830844733    0.83847511745675
N          -0.20446100779035   -1.04659237438248   -1.34511551480055
H           0.18527941454367   -0.13721279914457   -1.67611046819252
H          -0.55005565511848   -1.56432346880296   -2.14918452071855
H           0.52549359998142   -1.60864538478457   -0.79207459082251
H          -1.01353743485748   -0.82163273488847   -0.71972670852888
