    26
        -50.45436451  Gyration_radius:  2.67921807275 Dipole_moment: 6.660
 S           0.18182340179207    0.62448193889325    0.65887895227969
O           0.26522261262857    0.27670118373084   -0.87566705833680
O           1.53064400925290    0.90752350886059    1.10476162763328
O          -0.73577577398294    1.73117124171142    0.82226467757668
O          -0.32017830279467   -0.62648581924671    1.24464856317000
O           0.65239312786815   -2.80779790436620    2.62705957619076
H           0.38842501027080   -2.95989018715116    3.53509771860221
H           0.24677802280063   -1.96371497079198    2.36302154802731
O           3.21201773158189   -0.81096478714798    0.20011588850460
H           2.63034529418604   -0.05209332209104    0.49097885796058
H           3.80546307313158   -0.96891317232245    0.93750573864436
O          -2.99675066080035    0.94845656808811   -0.27182846999655
H          -2.15456974484419    1.17856103842248    0.18100742446417
H          -3.69420095067762    1.29778967210134    0.28596857871858
O          -2.47297097633878    2.18287303804991   -2.60353148755365
H          -2.43768024105836    1.49918455297375   -3.27404206886990
H          -2.75638980054527    1.73518627937679   -1.77539060229648
O          -0.02189351411321    2.70295746142962   -1.62343632115824
H          -0.23896100287249    2.86940381191643   -0.69507152770031
H           0.25873600176219    1.17611432788355   -1.32126044695139
H          -0.88801376234608    2.67233243426011   -2.09019530185923
N           1.11159509140848   -2.35785693756093   -0.01292446866831
H           0.84533925631104   -2.66947215229908   -0.94045904867098
H           0.41138742573148   -1.63535703594590    0.37299391268599
H           1.13091061735449   -3.11348384368896    0.67680810295668
H           2.04630404429707   -1.83670693508784   -0.01730433535923
