    26
        -50.46379651  Gyration_radius:  2.41568417801 Dipole_moment: 9.064
 S           1.02356446062326   -1.53572023648197   -0.65350944254013
O          -0.30513348616067   -1.68624795058542   -0.00268931339356
O           1.18777899704404   -2.45905637140255   -1.73276491723196
O           1.00891380994874   -0.06992264286250   -1.25403605705725
O           2.05659425719506   -1.49904019081873    0.36302575649936
H           2.03173591721980   -0.29252716399570    1.33544318655369
H           0.52413007589943   -0.20907627522752   -2.12659479191267
O           1.93173470022737    0.44396093174640    2.01511542893666
H           2.70330273663398    0.37408211571017    2.57923652760063
O          -1.65817742874176    1.81704715720437    0.48733136748156
H          -2.15757238480858    2.63264369941403    0.53940195700544
H          -0.71525892812736    2.07308651921606    0.28926702327184
O           0.90561818587317    2.24441628224283    0.15516488732642
H           1.37897966893303    1.87304044665264    0.91554404250191
H           1.05699271821943    1.59499914305085   -0.55149702859699
O          -0.35936408638670   -0.82554350936431   -3.24848609910415
H          -1.22812834752765   -0.75238286591192   -2.80215075779052
H           0.00296938103474   -1.70275815441541   -3.04358295650964
O          -2.24773929514902   -0.44537544023307   -1.34299508727346
H          -2.18755609613573    0.41436875338235   -0.90931719405318
H          -1.65147801842762   -1.02997431787791   -0.83714237940662
N          -0.67662146261207   -0.18341946670494    2.00433717572004
H          -0.52443426942586   -0.89862733784564    1.17830533776284
H          -1.16614359123871   -0.61802898348070    2.77797182068637
H           0.27951455282244    0.13097125898464    2.26764439457714
H          -1.21422204694602    0.60908462958537    1.59697713893949
