    26
        -50.42864385  Gyration_radius:  2.64326080622 Dipole_moment: 8.403
 S           1.57707911454548   -2.11756781264166    1.41544036910629
O           1.14915431187321   -2.26151059117943    0.03702572220624
O           2.36672079192368   -3.15884692021785    1.95455441260157
O           2.34368617223433   -0.78207905678332    1.55343892559807
O           0.30986188902634   -1.88586460566742    2.27886157273759
H          -0.51190881529880   -1.79744952205135    1.68698845260731
H           1.78700153524665   -0.01320672482061    1.20704534628553
O          -1.44201552248362    0.89672734408412    0.32551444065349
H          -1.94297691702171    1.39486144118946    0.96830771970012
O           0.96824078566325    1.22521121780977    0.77458742654576
H          -0.09136161741393    1.07562142741112    0.61404736976632
H           1.05007392410193    1.84336876451885    1.50065865284987
O          -1.78334997714594   -1.53067131729355    0.88755946095217
H          -2.52729108190697   -1.63586367758531    1.48164061641124
H          -1.69329299700826   -0.52070242032207    0.68980024257417
O           1.31504529460391    1.49714891259121   -1.93456403715123
H           0.51363443615117    2.03719695636512   -2.07608122115626
H           1.49010961783958    1.54937720611060   -0.97870588413849
O          -1.23275346793459    2.38801561421420   -1.81837726055585
H          -1.68457842470638    3.22187592312034   -1.69392969917442
H          -1.38530609695453    1.85074770853037   -0.99248988594280
N          -0.12532243603731   -0.66734390341718   -1.59577019098713
H          -0.50326124183523   -1.15666473132278   -2.39916497299140
H           0.54898842648840    0.11558509301238   -1.87866501810723
H          -0.87693718843337   -0.22409653035197   -1.05296666149717
H           0.38075949447536   -1.34386978526233   -0.95475588888276
