    26
        -50.47679051  Gyration_radius:  2.36812277049 Dipole_moment: 3.208
 S          -1.23826430491843   -0.90433041000640    0.21459514738684
O          -1.37319534083801    0.02690831215848   -0.90620276578596
O          -2.58453189089960   -0.94253982647553    0.97299046381279
O          -0.93303100025891   -2.24559835271861   -0.23773177830713
O          -0.21295875720549   -0.41043357492342    1.14817745392720
O          -1.39858929274100    2.53594557045865   -0.19336075454652
H          -2.01492116579194    3.02755661508111   -0.73796263167613
H          -1.40966849595378    1.60700514437190   -0.53457653302948
O           0.94420875606790    0.19462413508910   -2.22194592175969
H          -0.00510086602335    0.13080312551745   -1.99420338394846
H           1.29120077478790    0.81524595337172   -1.54555613966762
O           1.27574149486949    1.54410771513917    0.07899862024740
H           0.68424866891488    2.30042172089321   -0.00677623135414
H           0.72704097886595    0.85724479006241    0.51019752021631
O           2.38485119656232   -1.09169508088171    1.18352744735282
H           1.44099202794540   -0.95792430051969    1.40187251080429
H           2.73805653534655   -0.20519216052564    1.05939665734511
O          -2.04857842528797    1.30802819877614    2.14435712761639
H          -2.58881369508540   -0.08686420768723    1.47717431561764
H          -1.18377958410965    0.89383801050094    2.26849439951574
H          -1.91832892291204    1.95537209562327    1.42407243493744
N           1.51126674020906   -2.09895382314753   -1.11792630527045
H           0.52355212423665   -2.32154711419277   -0.79383482722986
H           1.40861109109587   -1.21647595402707   -1.71825494617124
H           2.05324073981050   -1.84131443578408   -0.25356890482778
H           1.92675060331717   -2.87423212616718   -1.62195299521505
