    26
        -50.47376031  Gyration_radius:  2.38778770616 Dipole_moment: 3.939
 S          -0.49312075400113   -1.72685843486838   -0.39074898623665
O          -1.69245861135863   -2.48934118969406   -0.18099811472405
O          -0.56576193608789   -0.79625957068252   -1.50529024151432
O           0.03115798225052   -1.08530701170906    0.80799773378634
O           0.63977203246841   -2.78799861145428   -0.78816422444026
H           0.12875262607214   -3.45657022172842   -1.23159305807982
H           0.55430845953215    0.27386435880840    1.75553516469575
O           1.01518723641515    1.08188252775537    2.04951275409374
H           1.94916591673713    0.87722570617279    1.94701096361169
O           2.55909162955414   -0.76185553273722    0.10981858758723
H           2.89533009837679   -1.57854550263065   -0.26302703645847
H           1.64283863505052   -0.96724603259486    0.39106677031923
O          -2.69822270466511   -0.54407591989937    1.34746476591172
H          -2.51638364383956   -1.34071781022198    0.81458057247354
H          -2.01896870979511   -0.53475193899782    2.02584398782718
O           1.47960153855732    0.89123790382769   -1.74604340356049
H           2.09548143438630    0.41072470249706   -1.15873250814224
H           0.73281111718439    0.26761261782606   -1.86408947710486
O          -2.12668451144746    1.18717858040088   -0.61848653289307
H          -2.51366930478363    0.71961433475311    0.15143725072805
H          -1.69531756553709    0.47774333582547   -1.13217255422551
N           0.12264785594207    2.41372535980152   -0.09618037158243
H           0.73633953317146    1.94166103873614   -0.83404342064331
H          -0.86511245189677    2.02849046578490   -0.25994049916480
H           0.45759984653590    2.07451188616837    0.83731949928301
H           0.14561425117453    3.42405495876231   -0.16807760159507
