    26
        -50.46789721  Gyration_radius:  2.47201647381 Dipole_moment: 3.021
 S          -1.60807767709493   -0.14726104646621   -0.13207484062521
O          -1.75023847146217    1.23547066662151   -0.54964123308234
O          -0.87235773626769   -0.94018576571379   -1.10200219171948
O          -0.99188653041988   -0.23084629775313    1.19789735698521
O          -3.02953857664016   -0.78990020577919   -0.03164081632546
H          -3.47134891793229   -0.22448999160152    0.62834453293488
H           0.51950563730968   -0.81072995590853    1.23961384410928
O           1.46035217253531   -1.11857109809701    1.29793288462664
H           1.57107407256412   -1.45515062090964    2.18858957565426
O           1.39641258270464   -2.60761863345608   -1.02552684506322
H           0.43925918059223   -2.49112334800801   -1.10935597261993
H           1.59642796974809   -2.26505455510693   -0.13681912406350
O           2.42298463137723    1.05777799224177   -0.09385222563668
H           1.71999147517393    1.69159280698904    0.18483178542062
H           2.32992489890759    0.30521347370073    0.51570112934937
O           0.25896322597953    2.33930620893988    0.75537382392063
H          -0.48291019875010    2.05673884904099    0.17881537609289
H           0.08801105829584    1.91579168739419    1.60060160888430
O          -3.23449078771189    1.14804893053589    1.76564707011731
H          -3.03674647408190    1.78902109845284    1.07217334788923
H          -2.38592816753696    0.72400434123440    1.96707683626082
N           1.42786966393500   -0.21507627420566   -2.12436847278349
H           1.59108614581486    0.08609033190139   -3.07783987574591
H           1.72653308177777   -1.20641288634182   -1.93896523940083
H           1.90938310156819    0.41089217570983   -1.38802464832586
H           0.40574461963760   -0.25752787337343   -1.88248766684208
