    26
        -50.47398927  Gyration_radius:  2.40010496559 Dipole_moment: 6.581
 S          -0.11928292804059   -1.36815645060862    0.83840016944194
O           0.12853163856906   -0.68017444976372    2.09011493204395
O          -1.42506233783526   -1.12112514294242    0.27294659530170
O           0.94487915267071   -1.03945599906397   -0.13790270217422
O          -0.01871579989597   -2.90830996580342    1.08209072334295
H           0.85986151663629   -3.00578680579297    1.49606632866124
H           1.31017274401557    0.51565625101872   -0.33248276591573
O           1.48494833485903    1.47673469701468   -0.51364541149817
H           2.42872689984551    1.55488231916025   -0.66053422214441
O          -0.57515136789213   -1.13667343419756   -2.29650194357367
H          -1.34569690632095   -1.46126573695577   -1.81370581313225
H           0.13783875248030   -1.20395511113504   -1.62575703796112
O           2.35159382562057   -2.15402359384586    1.98318270629911
H           1.76375574772440   -1.50608666368865    2.40547606809330
H           2.50625131850805   -1.80767566852433    1.09732780476380
O          -0.28674387973223    1.93890172445751    1.66672818396791
H          -0.17618723651742    1.02913069983093    2.00433025946069
H           0.44009222792759    2.06602069793700    1.04384917000103
O          -2.34029086106731    1.37337952138961    0.09888739390062
H          -1.74354706247836    1.75929043877155    0.78486268277143
H          -2.24647377892787    0.40845490045416    0.23446078963491
N          -0.81568217263254    1.47920876756330   -1.97572368669684
H          -1.06551087622847    2.08977247569464   -2.74494015667645
H          -0.76433796843813    0.45916296874793   -2.27052670360847
H           0.10690841867694    1.72019913341190   -1.57312789518831
H          -1.54087742153559    1.52189443687014   -1.15387546914573
