    26
        -50.45828341  Gyration_radius:  2.55645207801 Dipole_moment: 3.190
 S          -0.77666132009872   -1.43287255805142   -1.86286423549552
O           0.65939046532786   -1.38845368457199   -1.60257149778637
O          -1.47126996690035   -2.39973179567156   -1.06096673092015
O          -1.36170900692966   -0.09186339185633   -1.74012278007013
O          -0.93161692028620   -1.84837175186164   -3.38645006364664
H          -0.29516898869094   -1.30688492330359   -3.84688092438297
H          -1.94150242618777   -0.20509699971210   -0.25232420610540
O          -2.14597932906222   -0.39321525777164    0.70272765958028
H          -2.76257471501838   -1.12899192038768    0.66465782631420
O          -0.85931861483909    1.85497546352035    1.62230803148802
H          -1.44851321076260    2.55258463507255    1.91234199654212
H          -1.41697329101021    1.09098795499215    1.39737685723784
O           0.36963394144506    1.80611070840920   -0.94865090009027
H          -0.19651786309088    1.12906637900976   -1.36404289890290
H          -0.04824521188762    1.99936686417823   -0.09698934741339
O           2.78661220919250    1.15164107672651   -0.04261826483443
H           1.93834730815075    1.31830534564650   -0.51699129943389
H           3.39212199954066    1.83529420255382   -0.32955862226599
O           1.56068149143826    0.55679154809466    2.22854682828562
H           2.17013224411412    0.82081284939475    1.50261551276304
H           0.82013910875656    1.18048245823465    2.18763489548050
N           0.40073327469695   -1.43378106829430    0.98460244569036
H           0.94909230761948   -0.69488235112611    1.54240422192908
H           0.53473229615755   -2.36839082409635    1.35587816784117
H          -0.60887300834677   -1.18114991694305    0.99279469000962
H           0.68330723696734   -1.42273307205660   -0.04285736167498
