    26
        -50.43295105  Gyration_radius:  2.48465960001 Dipole_moment: 4.973
 S           1.79584533766530   -1.35803144863951    0.94356525386898
O           1.97401206715426   -0.30181670631094   -0.03616717300593
O           2.91161632983155   -2.18897303038995    1.19311458194282
O           1.24919193898655   -0.71685718949413    2.24090580868864
O           0.60389065888904   -2.22794834320781    0.46707434013458
H          -0.27161105863211   -1.74874037140554    0.74736810820269
H           1.10974031431183    0.28258424497532    2.06279842169596
O          -1.28312747952095    1.24401433992628    0.18809916194002
H          -2.16192285537990    1.59645503824970    0.06180192693648
O           0.90951223375287    1.67565662669882    1.50553195178058
H           1.52713334415421    1.54159708042749    0.77447257103271
H           0.00606121573421    1.61780056639582    1.09662653732178
O          -1.51429222242158   -1.04877342260612    1.12886269362075
H          -1.45078777344891   -0.05647765207680    0.76185385681981
H          -1.46311940312692   -0.97861712304216    2.08356202456545
O           0.16705177220607    2.98195936642729   -1.45590976850816
H          -0.38642386182858    2.56759895630304   -0.77235585832891
H           0.63302979201112    3.70135532752133   -1.02928245993475
O          -1.36112425657237   -2.30169013552335   -1.56983141651831
H          -1.91542229276288   -2.06514419922881   -0.81753597274922
H          -0.64080042420236   -2.82277806345851   -1.19801350460544
N          -0.07991790540568    0.10786813727886   -1.71987878069086
H           0.07019532573988    0.71945440598778   -2.51540882742358
H          -0.70057625999592    0.64664296113507   -0.94607495342907
H          -0.54832594233836   -0.78281472458578   -1.95955658793331
H           0.82017140523517   -0.08432464137665   -1.23562191541866
