    26
        -50.46752895  Gyration_radius:  2.46794171765 Dipole_moment: 7.022
 S           0.44783748481275    0.42875614540443    1.73861399383075
O           1.13026109236646   -0.41966817495312    0.72930286703233
O           1.33867974906805    1.33237817203638    2.38771638092192
O          -0.69327426609365    1.08910287940460    1.07607608834021
O          -0.14247191327654   -0.55129449935260    2.78678637720289
H          -0.76538751326469   -1.15676383321479    2.29749020176570
H           0.28074719353434    2.31428610620210    0.39942371965154
O           1.06669934199754    2.78366410744893    0.06177975353621
H           1.71088505972030    2.64479329693288    0.76518873672062
O           0.69848016791190   -2.95020675608388    0.13648940377012
H           0.98863318343559   -2.05291896661247    0.41423132711440
H           1.20688456750117   -3.56846355568346    0.66316237132457
O          -1.61152399880274   -2.10614142439393    1.29032567359354
H          -2.02088655560507   -1.53931141260574    0.61829248751431
H          -0.90123910857044   -2.59612502880001    0.83144007997123
O           1.18089134988868    2.04430996627062   -2.46372511705220
H           1.27729625509568    2.36433391141950   -1.53094401702882
H           0.71391575124481    2.74045213602018   -2.92839472147590
O          -2.24280730286757   -0.10921362567091   -0.55158034500303
H          -3.07398942256261    0.36240428864849   -0.61831125495009
H          -1.69382854965848    0.39244629251762    0.12334240821974
N           0.21366389481112   -0.29891478926519   -1.67915520589178
H           0.49483379426635   -1.13776441423953   -2.17667952310356
H           0.56365096792146    0.57960503361177   -2.14255737395403
H          -0.81200965025567   -0.27122496166202   -1.53914921254240
H           0.64405841730210   -0.31852091342252   -0.68916509952578
