    26
        -50.46618780  Gyration_radius:  2.5616678812 Dipole_moment: 3.760
 S          -0.79008046723926   -1.47804691067232   -0.66318671731265
O           0.47386488376497   -1.91005702688190   -0.05197309625516
O          -0.59537655891043   -0.70361897042163   -1.86074974904818
O          -1.60096707333578   -2.75504324911163   -1.03895766801521
O          -1.57870586945618   -0.74443743317019    0.33894765085016
H          -0.95484072215511    0.11625840957220    1.68270342064578
H          -1.64263486925693   -3.24045247354274   -0.19034039108380
O          -0.49397453738866    0.76106600161766    2.26044029740059
H          -0.94337330044681    1.59549284248620    2.09918986025058
O           3.31955966473813    1.86050923401487   -1.01492498794051
H           2.47352613220501    2.01493822643812   -1.45579542780191
H           4.00176821374172    2.06509285961121   -1.65534387912287
O          -1.87596572582338    1.83843809999935   -0.24524519827873
H          -2.63017469392668    1.97276321325882   -0.82083981155227
H          -1.83624218209295    0.87005496597508   -0.08197943238162
O           0.48644627438696    1.67556249499356   -1.54534694703706
H          -0.31821993652491    2.04639205570098   -1.13225735456472
H           0.16993856959895    0.82005022796118   -1.90962564352833
O          -1.17364331619993   -3.31424562348258    1.50789349085436
H          -0.32931617526609   -2.95325016729958    1.18657357182422
H          -1.65249488255909   -2.56602672909596    1.87644477549528
N           1.52618334343418    0.40747015487165    0.56360057929833
H           0.96007464907781    0.65388354821964    1.40947629187571
H           2.52563431688769    0.56839043572487    0.66861555185593
H           1.29450177315209   -0.59410090844537    0.32302296262069
H           1.18451247957990    0.99291672172223   -0.25034215895820
