    26
        -50.46025288  Gyration_radius:  2.38588299403 Dipole_moment: 4.762
 S          -1.33805902665317    0.50963365190827   -1.10786560081848
O          -0.14410375959574    0.94081809595924   -0.36896820161711
O          -1.18277649419248    0.62253683047905   -2.52819239883293
O          -1.41992578053310   -1.08042887921983   -0.77693395780723
O          -2.54365034427674    1.03904897662129   -0.51932578637582
H          -2.10530224936620    1.60431779918892    0.93342849982415
H          -0.55688489253998   -1.44277102491437   -1.07727244723107
O          -1.88764774374606    1.73785737820242    1.89169578241755
H          -2.70192578658628    2.02566299121899    2.30830333293378
O           1.59332953032526   -1.21941056801561    1.33395503201115
H           1.98519260662493   -0.31846604068549    1.24345183553272
H           1.51991810435829   -1.56075393729822    0.42970219474950
O           1.05376217530415   -1.85395512325955   -1.38249480997719
H           1.35669100186677   -0.98990366588260   -1.78751657934154
H           1.18808709907868   -2.53250411721192   -2.04599831019808
O           1.53134645606279    0.53358991237048   -2.30521793395125
H           0.95953352118544    0.83985123525579   -1.56085988709885
H           0.94975035290780    0.64368222465331   -3.06597132851940
O           2.24242104659561    1.30467758316836    0.80133266422306
H           1.31486854942768    1.41493707584468    0.52916884478717
H           2.75793187360241    1.40309412003527   -0.00306373579805
N          -0.92355899105042   -0.73189843097748    1.83990086418680
H           0.14193239546353   -0.88518978762145    1.74819306271185
H          -1.30804568874562   -0.94590339304540    0.89540451364773
H          -1.32088424629049   -1.33736100484412    2.55123723708741
H          -1.16199969922889    0.27883809806248    2.02390710345406
