    26
        -50.47723498  Gyration_radius:  2.39947596494 Dipole_moment: 3.771
 S           0.08382727553769   -1.14257547285405    1.29906265733828
O           0.07079148306672   -1.60396915344989   -0.08471663786063
O           1.41151400442163   -1.07847894861877    1.85160371650422
O          -0.62819114436708    0.13743593553353    1.41604203689365
O          -0.73805873960160   -2.18080142256845    2.13928131172598
H          -1.63607867523833   -2.07758459865638    1.79475548562332
H           0.02003182193877    1.59824065437531    0.87023116465817
O           0.51437410967509    2.27372690395193    0.35842763462556
H           1.44213645520576    2.00155678365054    0.45468951480839
O           2.79497223337137    0.74054756431398    0.60798660990154
H           3.65743397068927    0.80389672602150    1.02193404662651
H           2.29902501280284    0.05355455117276    1.12273973111769
O          -2.95616355606737   -0.89689452402466    1.14252823940185
H          -2.14692103853728   -0.33925427695644    1.25043089567485
H          -3.58838091999985   -0.59329837479127    1.79659116356636
O           1.86847942987243   -0.45794624689063   -1.68813644988802
H           1.29887259635251   -1.07100160260083   -1.17871267797347
H           2.42020270856793   -0.02527895669439   -1.01422934725594
O          -1.92615235661223   -0.60261663596855   -1.48311721742733
H          -2.63565200970753   -0.58975765130468   -0.83022801758651
H          -1.20965945587638   -1.11610513539492   -1.04740628910356
N          -0.09611824611668    1.25858087163990   -1.98742669664902
H          -0.94570889823187    0.64954538463476   -1.85178925391952
H          -0.18488600167363    1.84769387795585   -2.80690021330988
H           0.07523243436388    1.81906264169946   -1.09715298686869
H           0.73507750617459    0.59172108583665   -2.05648841061507
