    26
        -50.47513823  Gyration_radius:  2.42343992932 Dipole_moment: 3.748
 S           0.54856204022619   -1.55452876151989    0.92476866166070
O          -0.60063994172401   -1.89631088524525    1.73970532158687
O           0.26531447890840   -1.52035891844048   -0.49434923717605
O           1.18519248346963   -0.32272153195767    1.38306921661600
O           1.60339057998322   -2.70823674489889    1.14484072709953
H           1.53528813042853   -2.81975611949297    2.08592643924641
H           0.18852738923573    1.02694453975405    1.23098469914867
O          -0.50123687240737    1.69273052057256    1.02253893190743
H          -1.33397021163800    1.25583034756151    1.26645951535425
O           3.07456215556556    0.89404867357030   -0.02137045223806
H           3.14269903357531    1.76348919120948    0.37650389680178
H           2.45752882900675    0.38580356136232    0.54656317213028
O          -2.49537016555347   -0.16822760138413    1.38663547973743
H          -1.79626773027756   -0.85264061287784    1.55715110525284
H          -3.19840017298277   -0.34725334029523    2.01304401141573
O           1.56107429179609    0.17901518256514   -2.12973729439670
H           1.19754938038594   -0.60918770375084   -1.68208097048232
H           2.27034245044678    0.49002072218505   -1.53233568052851
O          -2.13983949209942   -0.62895607591919   -1.30369426265773
H          -2.52540783903007   -0.47693574496339   -0.42447394106417
H          -1.33969308483142   -1.16118558185415   -1.12847316890318
N          -0.62676570303561    1.51031450088320   -1.61295950083754
H          -1.34496418378221    0.73055190757587   -1.65770528956012
H          -0.88840271187434    2.30851597193204   -2.17885127192641
H          -0.54126227998481    1.75358183301376   -0.58493185105997
H           0.30218914616076    1.07545267047561   -1.92722824714146
