    26
        -50.45675028  Gyration_radius:  2.50002347538 Dipole_moment: 1.681
 S          -0.66030432861379    0.86794809179752   -0.71626740655490
O          -0.12729731140515    1.40919036968137    0.54193525575028
O          -1.37917737851435   -0.37141426336082   -0.48211688038774
O          -1.66614886010191    1.93675761595436   -1.23050889294902
O           0.39695331114074    0.71341134300953   -1.70363978166970
O           1.05487632949378   -1.08684276133933    2.67975362438165
H           0.69414934729083   -1.68223526663717    1.96330152515868
H           0.26954119962120   -0.55392001324332    2.96296963452621
O          -1.01560056789452    0.53500001192166    2.88174741115434
H          -1.06255666151536    1.31525154022836    3.43650005168418
H          -0.85190101343420    0.85973726446062    1.96943017370532
O          -0.11569069051363   -2.32759532080232    0.71049307185124
H          -0.56724787510954   -1.59388154310091    0.22656342951955
H          -0.81300796027659   -2.93431959837467    0.96557714313215
O           2.65392943436201   -0.35057595254158   -0.99483827756800
H           1.77721991413484   -0.03079115954355   -1.33473928999162
H           3.31896182407298    0.07707124219410   -1.53769389612745
O           2.16266809372279    0.62665790066783    1.31190531578200
H           1.30528324945879    1.07918961581138    1.00944942740139
H           1.75005210573139   -0.20178008315565    1.99711692909288
H           2.50144790145106    0.17586648164346    0.46483740276512
N          -1.99977185666521    0.24715007370616   -3.18556650097346
H          -2.46755170143009   -0.01356816940808   -4.04501627238282
H          -1.98728069042579    1.51463981508270   -2.06601416239211
H          -2.17379885103590   -0.46412360840288   -2.48326261878971
H          -0.99774695354636    0.25317638376135   -3.34191639611878
