    26
        -50.46288685  Gyration_radius:  2.41109518732 Dipole_moment: 7.055
 S           1.85976827301239   -0.71860999743611    0.07358809800594
O           2.35791716315697   -0.64613747070458    1.42679089022388
O           2.46522056785382   -1.68856579055154   -0.78854215840176
O           0.32921421428588   -1.18871108320586    0.18536539267141
O           1.75561467131299    0.62283826012087   -0.54467982968778
H           0.51704533664100    1.52230006421535   -0.38388282121581
H          -0.11184957120841   -0.59295880222309    0.83516115179328
O          -0.34576991574392    2.04573338665913   -0.36704421253440
H          -0.08984025971736    2.96242310202435   -0.47528956914626
O           1.06063187129130    0.77320899741517    3.16840985363717
H           1.63149513949816    0.30069449714144    2.50795810646896
H           1.27781005260130    0.38362459388850    4.01654541311791
O          -1.09843391981171    0.43772403577153    1.72021402074172
H          -0.41903923515964    0.58425882707650    2.42180552681334
H          -1.01209168457630    1.20707778645572    1.13434411146803
O           0.90347092690808   -0.62893924679694   -2.64054019178000
H           1.33602583693100    0.01415114687267   -2.03247636310655
H           1.32287548120097   -1.45002344773879   -2.33867777451019
O          -2.44164195002386   -1.42249822048999    0.15139442669719
H          -1.75696781233217   -2.09620460418756    0.22236662849921
H          -2.26774040128202   -0.80990393803898    0.88512723921257
N          -1.47951871085884    0.07822027097775   -1.85024715852769
H          -1.91124991405425   -0.56165546690954   -1.12845851544692
H          -1.20217196559230    0.96014858401707   -1.36998962202959
H          -0.55821920603581   -0.34851743469321   -2.21591779692583
H          -2.12255497830828    0.26032195037149   -2.61332484603214
