    26
        -50.46407113  Gyration_radius:  2.37901070324 Dipole_moment: 6.934
 S          -0.56108869756183    0.72306989468834    1.21645866033956
O          -0.02517379139285    1.21832683714135    2.47095418268831
O          -0.51669351168962   -0.75401109064985    1.18981765189385
O          -2.01719407061495    1.16835858990388    1.08128317467431
O           0.19875907824185    1.23418570081542    0.06971118649049
O           0.97282661575450   -0.78263001863043   -1.58585889818047
H           0.30277168109655   -1.47219923250221   -1.63536884079742
H           0.60272929129627   -0.11420121265086   -0.98140428739964
O           2.81007757546821    0.52597852622613    0.10547655010168
H           2.68814366517444   -0.07927074374782   -0.64020836899342
H           2.01692828997214    1.09531370576684    0.07190291686441
O          -1.51996179627874   -2.00282507265587   -0.86864239230032
H          -1.15250987526285   -1.58876890127052   -0.04897145694536
H          -2.08294575223064   -2.72213963642060   -0.57971165752429
O          -0.64318028206345    1.60575705671379   -2.48349680497003
H          -0.29548325598935    1.76519776735588   -1.58957919818142
H          -0.06828970948425    0.93163382109978   -2.86127541753203
O          -2.70447079572707    0.41873038193553   -1.24119514098012
H          -2.39076553727397   -0.50611014918412   -1.27619836323547
H          -2.36609313488769    0.89812656052509    0.15234554016580
H          -2.10757753942251    0.92769278948492   -1.83474486039880
N           1.81834734484609   -0.52861732465074    2.28428668419660
H           1.24949165345650    0.31241963911330    2.62342286182987
H           2.33630386475608   -1.00831051686404    3.01288588602698
H           1.03328944603083   -1.08346729348007    1.87633533092570
H           2.42175922378516   -0.18224005807222    1.47177507123416
