    26
        -50.45675110  Gyration_radius:  2.61444394997 Dipole_moment: 1.550
 S           1.57689876622159   -0.04626331082242    1.88185224965423
O           1.82872138105544   -1.00823143391555    0.81153975200152
O           2.18825650148505    1.23046039490262    1.65667168842699
O           0.13589456915877    0.06778532555225    2.14332902181673
O           2.21361334987738   -0.68731767210643    3.18717529828967
H           2.03430512652870   -1.62073779422706    3.10297669454456
H          -0.20336529600887    1.34753367015710    1.17759234599371
O          -0.20638590172979    2.08178589395762    0.51713611433458
H           0.29621596515337    2.78219119721857    0.94111423046422
O          -1.99211500964277    1.29666387314619   -1.55734397850835
H          -2.20104284826911    0.39780719864248   -1.26716453771391
H          -1.53760232783785    1.71731494338040   -0.81615217811302
O          -1.34229574003923   -1.95501954868735    1.39294547881245
H          -0.72241574281945   -1.23884379237380    1.66433547717838
H          -2.12872464355278   -1.82700521432655    1.92744903409893
O          -0.19839345447771   -0.11694514372259   -2.96892124160141
H          -0.86140599169514    0.58311050414217   -2.79456418300216
H          -0.58639037416138   -0.89111546798496   -2.52801804948804
O          -1.77633041342255   -1.54345386520997   -1.20890450377954
H          -1.52930468786023   -1.71089431745908   -0.26996753552231
H          -2.29601945677014   -2.30055562847727   -1.48156145707829
N           1.47759033781891    0.69516165048510   -1.12325749650696
H           0.88855398634234    1.36377890378286   -0.57509693556051
H           0.90434369204768    0.33395103805558   -1.95381195599244
H           2.34059256811797    1.14210904582856   -1.41415456425605
H           1.69680563448906   -0.09327043992529   -0.44519876849293
