    26
        -50.46448934  Gyration_radius:  2.56530843824 Dipole_moment: 3.653
 S           1.03718627619124   -1.41922668815987    1.09321446772535
O           1.63941321237403   -0.15045368812870    1.47681023479155
O           1.81585299598380   -2.58277056332774    1.35165593838386
O          -0.27249437525196   -1.55752076405593    2.04427922616846
O           0.47237576532655   -1.33215491439298   -0.25461894151421
H           0.46022529681071    0.93283123897587    1.94830111580105
H           0.03376418867027   -2.22093664267766    2.65420212531202
O          -0.38331222957227    1.43098651116329    2.03262712164171
H          -0.96630820708971    0.86285665302982    2.53996623116841
O           2.79971465721618    0.17221060414802   -0.90983707859686
H           2.54295966631963    0.15039390045248    0.03074650692991
H           2.43770190984842   -0.63525227063587   -1.28388300702170
O          -2.12767282581337   -1.94908837250847   -0.22458479984621
H          -2.27591558387152   -2.00152186366365    0.72203212224110
H          -1.15918673686329   -1.85745527520719   -0.32543617775914
O           1.52224195649621    2.33369095155714   -1.83208717268819
H           2.09578205658968    1.56483711440912   -1.60320754358732
H           1.95169029808531    3.10395338146981   -1.45712997249286
O          -2.96258036429166    0.26538212167556   -1.49216302733129
H          -2.79348681387245   -0.58823256447057   -1.03240418863701
H          -3.19892491864270    0.04087362396757   -2.39301932273891
N          -0.54553495745714    1.10772503283988   -0.63016330580808
H          -0.11297651812111    0.15508749405053   -0.56792313764424
H          -1.48414238446984    1.00613755715829   -1.06752196728721
H          -0.63027924923208    1.44817068610187    0.35249196717095
H           0.10390689464135    1.71947672623063   -1.17234741440166
