    26
        -50.43938788  Gyration_radius:  2.5557132988 Dipole_moment: 6.585
 S          -2.22703023737599   -0.91124740387179    0.73207513920332
O          -2.06664931935339    0.48157401257797    1.04435860913216
O          -3.51216529892776   -1.36940777626997    0.35722973201783
O          -1.16992097371007   -1.25863757499522   -0.37925885773079
O          -1.68587494415283   -1.76851118553409    1.90164182415110
H          -0.79461192827904   -1.39313860175574    2.12158534037291
H          -0.99482619646236   -0.44721890363006   -0.97467875088928
O           1.48077140830583    1.08698105958861    0.32936031788158
H           2.33408932967879    1.51391782719911    0.42181852548265
O           1.56442001855383   -1.64017868628548   -0.54456262440548
H           0.61073242564305   -1.78859999468517   -0.44593976728648
H           1.70356935928116   -0.70863597511445   -0.32095638279751
O           0.75178527455790   -0.86132660307111    2.18016835041507
H           0.93098388811158   -0.09062785040747    1.60994198624967
H           1.28762663431849   -1.58142216353345    1.83065082456083
O          -0.36853281232447    0.65661943984113   -1.83860797145745
H           0.15200477343755    0.14669873949373   -2.49994450852269
H           0.28326910756311    1.02610530488269   -1.22620117136233
O           1.22337754868024   -1.04145205993423   -3.17429561077293
H           1.53114660739067   -1.41311082537395   -2.32207427602696
H           0.81983046231846   -1.76225807533118   -3.65966634304622
N          -0.40876951926245    2.73317377940206    0.99860688965497
H          -0.71162454468201    3.39527426924573    0.29497003240744
H           0.78238212747575    1.77479035067644    0.61536786582656
H          -0.38728001202684    3.21236398171490    1.89004712353369
H          -1.12870319875315    2.00827491518993    1.05836368341818
