    26
        -50.45522589  Gyration_radius:  2.67206648899 Dipole_moment: 4.434
 S          -0.21645393062839   -2.20347060465988    1.58189728177756
O          -0.46683169556331   -1.35191780210513    2.72741017613355
O          -1.42142805760653   -2.59761595077438    0.87802458861256
O           0.79142021807879   -1.65114158303743    0.68320914402830
O           0.42961811144166   -3.54385116044235    2.14902218573614
H          -0.28693039245564   -3.88236859463659    2.67581958394320
H           1.46617537475843   -0.24471306272029    0.69074951512429
O           1.86820958833321    0.64662369617345    0.47343082333989
H           2.78437778271279    0.59439106683277    0.74793007475158
O           0.18957602545471    2.71322579656549   -0.53838466866227
H           0.91698149328122    2.16829435819238   -0.20659187933736
H          -0.54903656321805    2.54082086255611    0.05498714402689
O          -0.72836235164204    1.04209804036456    1.73439851651098
H          -0.75627971375035    0.20644189004813    2.25557905650061
H           0.21489681577566    1.21859046162544    1.64606982254130
O          -0.08158160128306    2.04298258549254   -3.12170861581536
H           0.03131673250817    2.48371726060622   -2.25022424463527
H          -0.97185594310540    2.24642948672540   -3.41324902727952
O          -1.73932270779703   -0.33112360630746   -0.34331101879582
H          -1.75370867984168   -1.23265995209473    0.06248946717951
H          -1.52159582756911    0.27077631721260    0.40160362437530
N           0.38008718857425   -0.23558346972015   -1.80603467550622
H           0.59459770436365   -1.13101622341324   -2.23000589727080
H          -0.54022249101181   -0.32470565341968   -1.20767263240647
H           1.12170053520181    0.02199191800957   -1.14147009283921
H           0.24465238498710    0.53378392292246   -2.50396824203649
