    26
        -50.47250280  Gyration_radius:  2.48724250135 Dipole_moment: 2.896
 S           1.49189238583770   -1.50182422516711   -0.81398184237573
O           0.29899346739178   -2.16911168873933   -1.32128752380916
O           1.40964243399219   -0.06074730380852   -0.95591420969073
O           1.82567973903015   -1.93185627599594    0.53026521348765
O           2.69168502324346   -1.96713035641408   -1.73790903376292
H           2.76534141617232   -2.88357473604925   -1.49472669455030
H           0.82314450387676   -1.35678055520786    1.62704130796532
O           0.22731275667328   -0.93924178518719    2.30299986037987
H           0.24174422934223   -1.52259105725827    3.06314152678593
O           1.41027384322244    1.37305413641626    1.29839599498893
H           1.12434674361433    0.68488923071300    1.91687899568297
H           1.58634497348304    0.89301543977423    0.46428938565345
O          -0.81042328045869    2.55761621177316    0.62748067018378
H          -0.84529033938910    3.45011414259103    0.97198886477058
H           0.07348953716511    2.17986453628690    0.90776408790731
O          -0.44007563314340    1.63851012430580   -1.94471584454902
H          -0.61001642046079    2.14990277492275   -1.13255629873761
H           0.39049023538476    1.15930296038656   -1.76766261704624
O          -2.02531135189942    0.15555936880864    1.20955450292682
H          -1.74846501392740    1.08336631967599    1.10126061985299
H          -1.28471944035794   -0.28152952046722    1.67104936210644
N          -1.74730687259769   -0.55373482306526   -1.31857270977334
H          -0.96284984113123   -1.26749955902381   -1.35235689335413
H          -2.55731159834096   -0.87849816709002   -1.83362640093158
H          -1.97830510608394   -0.36043478129639   -0.29973354410011
H          -1.35030639058805    0.34935957930515   -1.71906677024952
