    26
        -50.46489274  Gyration_radius:  2.41553387827 Dipole_moment: 8.732
 S          -0.32372983005045    1.17740219134701   -1.45921866496670
O           0.13678499192855    1.36821585458989   -0.07705770524435
O           0.18643023049404    2.12969154498560   -2.38286284498214
O          -0.10767747791144   -0.22810921069216   -1.85853106474231
O          -1.89425784608680    1.33461481759318   -1.38288640808077
H          -2.19317563382196    0.65248250222559   -0.75837757831180
H           1.59632755957702    0.03749150837492   -2.24582465889690
O           2.47315334077664    0.44974805826042   -2.21944357106143
H           2.30801022024406    1.35466858404911   -2.50064256915369
O           2.56417345713667    0.42260846845713    0.51808464466352
H           2.89218241838345    0.25779184980165   -0.38172289273613
H           1.75945386159964    0.95158075032859    0.36198100773391
O          -0.87234980227956    0.70097860125024    2.17289315223517
H          -0.95310972263435    1.49240223141181    2.70730499980752
H          -0.44487826539502    0.99596245876569    1.31783467836653
O           1.12822568411681   -1.28269552571291    1.89715676795027
H           1.81600027320602   -0.73411286874755    1.43118213238876
H           0.55971772324193   -0.63812355834557    2.34253327293254
O          -2.68292015868757   -0.42685069880876    0.59689966579980
H          -3.59386371601834   -0.21790532862758    0.81067296288300
H          -2.11951157542858   -0.01457960346349    1.29464271113312
N          -0.45448095835409   -1.98681027086012   -0.03325417684350
H          -0.26181935267599   -1.27400051338530   -0.82601414594992
H          -0.33218954127324   -2.93365658548733   -0.37496098229990
H           0.23165455670719   -1.76799251905747    0.78123344604847
H          -1.41815043678813   -1.82080275826254    0.26837785132921
