    26
        -50.47078931  Gyration_radius:  2.50451472547 Dipole_moment: 3.441
 S           0.10416765587846   -1.61126620178847   -0.37277798775212
O          -0.11145674149916   -0.92869554176045   -1.65228061540579
O           1.49688180554080   -1.68578850336461   -0.01110847382271
O          -0.68728724701979   -0.93778669433111    0.66891521925947
O          -0.44176518548675   -3.06411983268046   -0.49655474600335
H          -1.34957822426948   -2.95357259651831   -0.84280412522044
H           1.10934844620107    0.22158769318968   -1.59746788835964
O           1.80927150922955    0.84752310395933   -1.31017559524918
H           2.58768524212721    0.29728809270424   -1.18761088152587
O          -1.14537043278872    3.01136613558929    0.94767689823632
H          -1.62039203097693    2.33565439432663    0.41539072707116
H          -1.22483545395904    3.83924592973153    0.47256889713708
O          -2.02493699899411    0.96430021229323   -0.59581609884606
H          -1.53212143344888    0.92115210138880   -1.42110582821089
H          -1.66187066080491    0.23105643584735   -0.05456461746430
O           2.69630505760394   -0.47338676640592    2.07171706348098
H           3.06693097549527   -1.12496747399613    2.66758698988906
H           2.31989323574676   -0.97927775904317    1.32273799624194
O          -2.57212638390249   -1.93999696293513   -1.61768121532208
H          -1.78730302326163   -1.46074382286800   -1.93769005427821
H          -3.08263409458397   -1.30603803587589   -1.10519096182741
N           0.81645143133502    1.18834055632356    1.15089578263118
H           0.18353259574679    0.34803666576652    1.12307836971863
H           0.23734457548218    2.03676420116745    1.30229628217433
H           1.53716954796236    1.00367107850918    1.85723194953741
H           1.27669585270447    1.21965359075087    0.20273288392235
