    26
        -50.46466408  Gyration_radius:  2.51545808915 Dipole_moment: 3.937
 S           0.75024951311752    1.20058277526610    0.62297822484331
O          -0.17129284702248    1.17799224015073   -0.53344291506397
O           0.11161665550808    1.74403644490381    1.78821620897772
O           1.23778328309278   -0.17217247129291    0.85178386238444
O           1.95718242194008    2.09008740643226    0.25530546777476
H           2.29116106880730    1.85319133276960   -0.65813307497094
H           0.09758934563253   -0.65110162974206    1.95615853056320
O          -0.69829875629647   -0.75561498652081    2.52894812001617
H          -0.52945661143006   -0.15235201096392    3.25821751600059
O           2.41377028599940   -1.13515159020727   -1.32646760267171
H           1.63039552082949   -1.45942417476480   -1.78490839143530
H           2.09497539890858   -0.84610003211544   -0.44298800842480
O          -0.47466973191082   -1.37959280692877   -1.12378903241765
H          -0.07865732094330   -1.71359868283030   -0.31201194765816
H          -0.33897282537924   -0.40527214588476   -1.07829113222468
O           2.96610451035721    1.34176645321629   -2.01203369411691
H           3.91394176675491    1.48022456119957   -1.95698533215922
H           2.81835181275789    0.36848158292029   -1.89521422252380
O          -3.12314541175238   -1.44425581272093   -0.74979125279434
H          -2.19255164728602   -1.50175304726181   -1.07113680712193
H          -3.35827138382440   -2.31954398950221   -0.43808668579181
N          -2.29786287982527    0.54611620128710    0.83125016224786
H          -2.82994278998214   -0.15601364046844    0.26150696062773
H          -2.88598285091825    1.28500250247148    1.20074093508507
H          -1.77578377059243    0.04619142629820    1.60713326261231
H          -1.52823273659447    0.95827409444297    0.22104085823149
