    26
        -50.46740333  Gyration_radius:  2.56878293389 Dipole_moment: 1.590
 S          -0.50819291577018   -2.18868131604159    0.55552219032342
O          -1.53246626775675   -1.41716898666576   -0.14156692863555
O           0.46774476926965   -2.75065684433775   -0.35031353530708
O           0.08581233501347   -1.42656523175820    1.64442471110913
O          -1.24515452151622   -3.41239881263515    1.23909766315234
H          -1.28620057116359   -4.04333502905801    0.52801177439890
H           1.36526468073786   -0.44756937454701    1.35701347259637
O           2.08641419472119    0.19099431209411    1.13973624595683
H           2.72773176722241    0.11328656685981    1.84754729110451
O           2.04994446341033   -0.90656331956848   -1.42600258838156
H           1.59814279948743   -1.72327231607022   -1.12566539377755
H           2.37980575125955   -0.49089046345798   -0.61370341665193
O           0.15995823631953    2.10106365784581    0.57927662440638
H          -0.55307688388433    1.71037573795706    1.13968949725399
H           0.98057710634054    1.67799890829950    0.88188537242114
O          -0.95079269357133    3.10903145618834   -1.88156905903869
H          -1.28519904187230    3.99268251575656   -2.03744796278064
H          -0.58016673138703    3.10801281569196   -0.98892057285000
O          -1.64210852864895    0.58745476266540    1.81798177978093
H          -2.26268606271728    0.24650135164124    1.16644159470471
H          -1.02628196004931   -0.15739039070277    1.96126377305158
N          -0.21536196635219    0.42577486666890   -1.48713134916638
H          -0.61548118739856    0.89902788344999   -2.29374755469219
H           0.71580850421580   -0.03961712150994   -1.68842857567564
H          -0.06062280084761    1.14955923161794   -0.73483223808154
H          -0.85341247504285   -0.30765487040474   -1.08856283525710
