    26
        -50.46939773  Gyration_radius:  2.44906009499 Dipole_moment: 4.587
 S           0.67547340770533   -0.41865190949941    1.31970899316218
O           1.30851154244051   -0.78510670985819    0.03252682855366
O           0.49406010000524   -1.54511297125788    2.18068458910812
O           1.64593575264326    0.63734935361253    1.97394271446597
O          -0.55181946715890    0.33085399517175    1.07678684434413
H          -0.23921536400524    1.77540767152235    0.38128749153225
H           2.51031519172014    0.18770444137337    1.99098725750862
O          -0.11093732356466    2.58132491817961   -0.17345715936891
H           0.59457718841388    3.07398368388186    0.24767149785750
O           0.34412912485488    0.62156299896195   -2.00535590697398
H           0.21860230598875    1.48728057675935   -1.57168099820972
H           0.82143789459636    0.08313972434909   -1.33658565112178
O          -2.86457473142428    1.25454512745407    0.13731628451156
H          -2.20870866882144    0.89008408461541    0.75888981475424
H          -2.50456316145024    2.11123817110017   -0.11490642545831
O           3.68735584744016   -0.88075370496393    1.19061072184668
H           2.91496820807090   -1.07511447320625    0.62669139990267
H           4.37524031345858   -0.54890260689920    0.60913647413583
O          -0.76283048898835   -2.45344145625872   -0.10632183843465
H          -0.83182601761720   -2.51524927258330    0.85427045682301
H           0.11491756766454   -2.05006225572634   -0.23073597297136
N          -1.95382105650218   -0.56230175464901   -1.58981585118472
H          -2.50867587107838   -0.88284435491655   -2.37540420590979
H          -2.47507958839261    0.12659884819973   -0.98525558838492
H          -1.64561061219168   -1.36770122212257   -0.98706520130872
H          -1.04786210380842   -0.07583090324184   -1.90392657919218
