    26
        -50.45733011  Gyration_radius:  2.47852937771 Dipole_moment: 7.348
 S           1.51516490994933   -0.94479976745463    1.26502069895554
O           0.72359789475828   -1.38382911587636    0.08225491833071
O           2.61943850206238   -1.79133921380585    1.55173593916944
O           2.05154485285267    0.49756043899247    0.85290532700151
O           0.60192680670918   -0.67627505115127    2.36732712101038
H          -0.65568913146553    0.18930301292781    2.26736155565727
H           2.56907937844133    0.35810911746150    0.02887523826593
O          -1.53639598653467    0.66435594776303    2.12503261452276
H          -1.84126011211457    0.91030442653724    2.99912036706277
O           3.02351495100555    0.47099068515176   -1.60137853617429
H           2.13447012043771    0.39612348094831   -1.99930786272102
H           3.36751437009737    1.33302852084249   -1.84339797515523
O           0.30343368929971    0.27876128663527   -1.90854881753583
H           0.11750274900325    1.04402807521325   -1.32035393372525
H           0.50944389969680   -0.45029064207288   -1.27858542792679
O          -2.28208730392256   -0.28578100404047   -2.10711296815579
H          -2.71770756498533    0.55933290598262   -2.22972604669506
H          -1.31593996616116   -0.11908476801008   -2.24470787079108
O          -0.12705262194583    1.98607260572593    0.11996417612580
H          -0.80078152318311    1.73079118051470    0.76736066180039
H           0.71159378023981    1.68987035820967    0.51088475657247
N          -1.82592425125249   -1.30512283179071    0.32445957490017
H          -1.98464403545041   -0.58173963778700    1.05466719960266
H          -2.15047873119950   -0.95891759194250   -0.61452897464090
H          -0.74553168248827   -1.42580520872328    0.26258075379006
H          -2.26473300387986   -2.18564721026146    0.56809749076780
