    26
        -50.45950712  Gyration_radius:  2.55643212258 Dipole_moment: 7.833
 S           0.61863638172542   -1.79875930282559    0.96291403809462
O          -0.05676304977103   -1.73288418622670   -0.34443190484207
O           0.45781958030240   -3.01843954105480    1.66730798947617
O           2.15986816949211   -1.61170899051402    0.64774721960910
O           0.24721191662218   -0.59392944239298    1.73611798414582
H           1.35230326110964    0.53213275107930    2.06837011150506
H           2.23947871161179   -0.80137426092101    0.11925374187546
O           2.10081425653678    1.18110276779078    2.11362173068512
H           2.74178091125657    0.78822611013764    2.70877143780602
O           2.53495051425383    0.89449402851126   -0.44826097029495
H           3.45474192754409    1.02809362804615   -0.68114141942715
H           2.43945737683845    1.15078596121800    0.50797445025984
O          -1.82433141462490    0.81127625208047    1.09820435066746
H          -2.20264797039982    1.21987452690837    1.87733597656778
H          -1.09819299476571    0.21785619029240    1.42456343467907
O          -2.02585568812162    0.48761342605527   -2.94155627485059
H          -2.37009146447311   -0.18130352209132   -2.29901181912741
H          -2.78591123017598    0.97910787543371   -3.25359503067892
O          -2.67161218013565   -1.05385893902724   -0.86513104621952
H          -1.87462519152594   -1.59536989546861   -0.74400469335403
H          -2.65297044428709   -0.42120703762114   -0.13180701710284
N          -0.14317988897393    0.73817718827199   -1.05913764361590
H          -0.68441840488830    1.16080263950241   -0.29161724250169
H           0.81006669991353    1.10768302331062   -1.10770240222031
H          -0.08115999825560   -0.31543648879804   -0.82227143779444
H          -0.68536977685662    0.82704523666062   -1.94251355332642
