    26
        -50.46725178  Gyration_radius:  2.51434981725 Dipole_moment: 2.870
 S          -1.19697228841605   -0.18815448724896    1.82760459514941
O          -0.43835304960334   -0.74410388357116    2.91268803896832
O          -0.93556993814799    1.21065538626789    1.54238435470202
O          -1.08772423976210   -0.99424612420315    0.60353853790310
O          -2.72353295870651   -0.27072911678826    2.26450888200109
H          -2.66928012968454   -0.83875322066437    3.02575218011340
H           0.46149834690803   -1.50444155445562    0.93365788335558
O           1.42319210149771   -1.62186737122752    1.09030226880804
H           1.48897810217234   -1.68751184472391    2.04753210910476
O           1.56148809370556    1.10873900998919    0.52950191284834
H           0.73411453019421    1.29331303936897    1.00845639370120
H           1.75192841667339    0.17598845380691    0.71433338154323
O          -1.83431580029420    2.23182372185427   -0.71122117477096
H          -2.24060544646441    3.06622954201374   -0.47279093752976
H          -1.56450601320553    1.81619180414792    0.13882814112511
O           0.55012773525935    1.79873441785396   -1.85480878995842
H          -0.30303107997747    2.17219275234018   -1.54933863579693
H           1.08737709577588    1.70114118405926   -1.03747616283409
O           2.11719525638185   -1.98023691818734   -1.50582963228329
H           2.85510213710565   -1.37823350799536   -1.62597214560177
H           1.99179425066780   -2.06251395025882   -0.54320477782597
N          -0.21886355650215   -0.67494179199447   -1.88938239015449
H           0.08799459235757    0.36187785575021   -1.99440849340549
H           0.64076510534437   -1.27162351761538   -1.88318069912887
H          -0.67645895148711   -0.76739727431504   -0.94994336680739
H          -0.86234231098544   -0.95213261385847   -2.62153149283874
