    26
        -50.46138182  Gyration_radius:  2.53561128048 Dipole_moment: 4.685
 S          -0.74587593377605    0.60247259580561    2.16365517158275
O          -0.69862765087280   -0.83902539217221    2.40515888685121
O          -1.62953380092433    0.93165906489347    1.06873367776574
O          -1.36876772459749    1.23754448847881    3.48287553864427
O           0.57065698855206    1.19199173152532    2.02863916762992
H           0.56722478311833    1.70047322830467    0.53687000376929
H          -2.19670913654084    0.77607691403904    3.57399759437923
O           0.51422411075645    1.98525278864153   -0.41615498300269
H           0.21406271878297    2.89497519243762   -0.38680587557148
O           2.03763963693735   -0.22917001560992   -1.23642156072883
H           1.93117498621376   -0.74738870468019   -0.41539500203254
H           1.75052850289998    0.66419712501818   -1.00625944039801
O           1.65364447133160   -1.32957931980284    1.23454976371739
H           0.81951305619630   -1.19171361707222    1.72652978622451
H           2.29158853234923   -0.77959620065421    1.69482635590418
O           0.55077969368064   -0.66724480695634   -3.36871589183322
H           1.20863602570716   -0.64425431569697   -2.62852508941056
H           0.95760952611452   -0.20131439829835   -4.09997701381671
O          -1.13602945710118   -1.98213458804953    0.08444535282452
H          -1.13907895056545   -1.59449728161799    0.98910184036348
H          -0.27888472245905   -2.41121739473433    0.00060011476265
N          -1.18670586297032    0.13627717405903   -1.50870362827111
H          -2.13336647763440    0.45481648687910   -1.68247790948864
H          -0.67118220902041   -0.13370244271357   -2.37909663590620
H          -0.65795261361370    0.88383385581273   -0.99950966733198
H          -1.22456848932923   -0.70873217960184   -0.86194059724753
