    26
        -50.44194561  Gyration_radius:  2.57580745883 Dipole_moment: 6.336
 S          -0.13818786942531   -1.98927670931397    1.60711954113038
O          -0.06600532538786   -1.88670558255313    0.16826456390525
O           0.47153158442335   -3.10850429367557    2.21729313703932
O           0.44206341578051   -0.65411812641219    2.18889207205819
O          -1.61354856591269   -1.86350380324343    2.04799498933231
H          -2.04158080339361   -1.22466946890373    1.41503533163223
H           1.36690292363952   -0.49071958371839    1.81714103839980
O          -0.62453084796184    1.72320158217661    1.09669265994260
H          -0.29441056637137    1.15037621480697    1.79955607921955
O           2.69804577741394    0.02319056963847    1.19231466358701
H           3.19292311765071    0.54103191152216    1.83111288306106
H           2.36708421989578    0.65051721894896    0.50410252499316
O          -2.11968872449144   -0.22583685722917    0.09451137051076
H          -1.70327154348655    0.60856595222885    0.42506657725716
H          -1.37664110779172   -0.78824766696269   -0.19416627348587
O           1.57045765012135    1.66707319567848   -0.55893967137617
H           0.12217570371240    1.84543136882304    0.48268636954475
H           1.98493689002643    2.34250090597538   -1.09670361230833
O          -2.20953010342680    0.59478044286065   -2.55337964426724
H          -2.76499717097470    1.35999420098708   -2.70674463686233
H          -2.41355008122728    0.28102751925815   -1.65495409415764
N           0.61147804144517   -0.16645614388479   -2.10510841917958
H           1.15706530447064   -0.49112951238715   -2.89281873347124
H           0.49653016168079   -0.94920604931900   -1.46539554910657
H           1.19696757210990    0.96055299098043   -1.21026830429483
H          -0.31221965250102    0.09012971372654   -2.44930484303112
