    26
        -50.44620175  Gyration_radius:  2.53519157364 Dipole_moment: 5.800
 S           0.12050939805863   -2.49035456655512   -0.19014578894536
O          -0.63840407355837   -1.87564038450613   -1.25362191912715
O           0.69094649043505   -3.75661214494126   -0.45552206090622
O           1.21693336445980   -1.45454973165526    0.24308207399216
O          -0.73987958189788   -2.57587058131430    1.08428188203656
H          -1.06072517387656   -1.66657878894185    1.37444577189872
H           1.43310877088878   -0.93405632880701   -0.60005710309441
O           0.06534628570829    2.04941192660874   -1.53429864216110
H          -0.21837130356689    2.71163152399422   -2.16514464575830
O           1.02968047168894    0.39642648548505    2.32286468487516
H           1.38382930953364   -0.34716990840315    1.81714068716308
H           1.28155026187997    1.19653726764278    1.81451096471204
O           1.38365559180725   -0.26216300535940   -1.98928035620323
H           0.64305726144788   -0.83154166306408   -2.24632356174695
H           1.00040140134221    0.63607025455222   -1.89056504907143
O           1.77404934620610    2.30829580089828    0.57305434826820
H           1.12155809415971    2.30929724117335   -0.15133167524385
H           2.61645042199663    2.08004664059325    0.17579207659076
O          -1.44638591460491   -0.27203931669518    2.00953001539534
H          -1.81169485991286   -0.45386440618601    2.87791361501039
H          -0.51837748509243    0.08274379761544    2.17076431720587
N          -1.96945322740611    0.60220367927226   -0.77934964837126
H          -2.04616731613181    0.58712854263741    0.23241332042928
H          -1.64701133932194   -0.32643594225461   -1.05496843761850
H          -2.89801345835281    0.73275411972681   -1.16002764670289
H          -0.76659275585883    1.55432947846197   -1.22515722262600
