    26
        -50.47142884  Gyration_radius:  2.45694463684 Dipole_moment: 3.747
 S           0.18869106305176   -0.70318620846147    1.51193343885410
O          -0.50856648496714   -1.25539379144295    0.34088911341177
O           1.54701165810655   -1.16867382732102    1.60268840094079
O           0.11739424964376    0.76283228447850    1.47084824465286
O          -0.58945999219138   -1.16667151774449    2.77699332368468
H          -1.52293847461320   -0.94308648939091    2.56979620675207
H           1.55469294196626    1.21120744634238    0.68750404167979
O           2.29341276549558    1.20441179348408    0.04343040912573
H           2.91147339382910    0.55099906792358    0.38395450293269
O          -1.83750469716853    1.85827066237446    0.17812525377873
H          -1.07476599075414    1.44599171854553    0.66370934860174
H          -1.81162210037056    2.78990861312312    0.40402868496866
O          -2.79779539759289   -0.51296830910467    1.46290860606757
H          -2.21531997655100   -0.95320698303935    0.82076926713819
H          -2.82711926414297    0.40982157872472    1.17699329530812
O           2.55042694799309   -1.97716276602567   -0.76088073490584
H           3.05286646572421   -2.77982142866614   -0.61582552350290
H           2.18639772680835   -1.73892083083404    0.11471416893340
O          -1.35591251546710    1.31146882275411   -2.42254594546941
H          -2.13731934599091    0.85859950172670   -2.74355404533424
H          -1.55477529826580    1.56847155938771   -1.49419464155711
N           0.76859770087024   -0.15146796302525   -1.67057782328034
H           0.07124877255697    0.41737907523462   -2.19732972813909
H           1.29938326312974   -0.81320230262806   -2.23189751152653
H           1.44733327255726    0.46631728377018   -1.14616683566507
H           0.24416934628591   -0.69191700007200   -0.92631350741035
