    26
        -50.45573409  Gyration_radius:  2.63186403519 Dipole_moment: 5.068
 S           0.48959639427973   -2.17135922285265    0.72539091197451
O           1.24738546856969   -1.04740017610429    0.17023020421724
O           0.85454102459786   -3.44722970867313    0.19828545837042
O           0.91900086460252   -2.21464446404843    2.27998264018164
O          -0.93351597881664   -1.85769009638403    0.71575488261688
H          -0.73321629373211   -0.57299729109934    1.70037082048076
H           1.18844482736308   -3.12448066063840    2.34096899754114
O          -0.48868924536778    0.19381772061736    2.26450575182601
H           0.29368462747784   -0.10889820609159    2.73062830779698
O          -1.69204671538309    0.72940102338944   -2.65917115704179
H          -2.15768233375672    0.30820536826730   -1.89702426845046
H          -2.28887783900640    1.39453134713277   -3.00460605727348
O          -2.69334412685148   -0.15645632214472   -0.37034309185290
H          -2.15111635438153   -0.90739657313836   -0.06171788604351
H          -2.66085846129244    0.48839065073339    0.34081059833706
O           3.08306374394516    0.29092796868748   -1.37845207921513
H           3.61318142105495   -0.28706681149179   -1.92846502449028
H           2.62684714403099   -0.28770558729277   -0.74393524123624
O          -0.42224706402360    2.52085007290751    0.99319801582138
H          -0.50549859380740    1.68731282665013    1.51674518351282
H           0.06472364086250    3.13469309716055    1.54416921517199
N           0.46515520735943    1.10835648413379   -1.11354498984180
H          -0.28488899249459    1.00318530254783   -1.83414133835491
H           1.38087949810208    1.30954548902555   -1.52571638895774
H           0.18428831992336    1.81899357676269   -0.40379727797318
H           0.60118980673999    0.19511419193804   -0.60012619711671
