    26
        -50.47418040  Gyration_radius:  2.41026640878 Dipole_moment: 3.431
 S           1.10039051239468   -0.94380195869046    1.32218045438226
O           0.62930080350207   -1.88952213071187    0.31823372595422
O           2.01900598536146    0.04160297186326    0.79541627667960
O          -0.00644564976668   -0.35719944273318    2.06262301701226
O           1.92968839866232   -1.79769653039320    2.36510392626427
H           1.30953004549456   -2.47522330665001    2.61136608043771
H          -1.40055099272465    0.02980163884893    1.36229674387411
O          -2.24975447341074    0.28009874737294    0.91442401621326
H          -2.90777018665075    0.34603667832837    1.60767915047369
O           0.76628375235885    2.28828350252268    1.41908376717523
H           0.26448983151131    1.90560624471034    2.14468775143243
H           1.38691336226975    1.57780068552385    1.16724537717834
O          -0.96470586942144    2.19544027157554   -0.60627857328140
H          -1.61372901683156    1.66045611281767   -0.11903001356694
H          -0.26758689121674    2.39666431954824    0.06067858831582
O           2.02532298408600   -0.80104289094101   -1.68244198248233
H           1.59409902317017   -1.55073392536876   -1.23916216457422
H           2.34289225281021   -0.28568289269668   -0.91854437146663
O          -1.63015932943711   -1.51130592409050   -1.05859358379434
H          -2.11633495751995   -0.96255293608666   -0.42028639717592
H          -0.84671640484097   -1.82431693016688   -0.56125353910868
N          -0.26970771271592    0.34890064987405   -2.33880166117194
H          -0.44070184594222    0.56915769386232   -3.31315017729243
H           0.71966387429377   -0.00162425917095   -2.19025283421792
H          -0.46673070164506    1.19034384164277   -1.71146740880050
H          -0.90668685379205   -0.42949024078948   -1.99175617845954
