    26
        -50.47225162  Gyration_radius:  2.43128964454 Dipole_moment: 4.197
 S          -0.62582071700429    1.06889436812241   -0.10754736247218
O          -0.87634495715388    0.02965792239448   -1.10498113240976
O          -1.48795592255571    0.93129494404404    1.04946401551057
O           0.79548933043968    1.06074070985927    0.26849056837320
O          -0.94345905362887    2.44884333051045   -0.73263904891471
H          -0.23028159729897    2.70274833309449   -1.37476606746231
H           0.81911161380922    0.48724645382372    1.84823090239271
O           0.48431636363385    0.08944053648405    2.68308038908763
H          -0.37878840690968    0.51317574746177    2.77667238914928
O           0.76425887643865   -1.99328473649239   -0.75598219603858
H           0.10581534461941   -1.28076740919536   -0.94688822313716
H           1.61502273335327   -1.62855960542657   -1.01705113186832
O          -2.51701574257235   -1.42949907780790    0.70265548653786
H          -2.30458247186838   -0.48534322220742    0.89960109259043
H          -2.43445293357794   -1.48029588380395   -0.25519903625730
O           1.07006613980956    3.05608300328627   -2.29807977420202
H           1.69046669630496    3.55703678156624   -1.76438214699770
H           1.46381869774295    2.16144984959681   -2.41677693807386
O           1.70691814521336    0.47827757790262   -2.11043727469945
H           0.88634039127098    0.13246844409971   -2.47846827278331
H           1.49833490029371    0.65798858223731   -1.16512146941258
N          -0.21213636780840   -2.24641210762791    1.68359425666940
H           0.12218326137666   -1.37738717670018    2.20583825470605
H           0.33381339767963   -2.30643109191008    0.78555833488870
H          -0.12754187695295   -3.08799622949399    2.24207503332359
H          -1.21757584417851   -2.05937006373605    1.38305935181150
