    26
        -50.46771432  Gyration_radius:  2.50480429581 Dipole_moment: 3.799
 S           0.25958529888251   -0.53454992940398    2.03481770952920
O          -0.72123968245332    0.30373200041118    1.35302737618613
O           0.99547288793089    0.15078372128775    3.05960362420627
O          -0.57037826107320   -1.67583246653367    2.76820570071345
O           1.09558600207760   -1.23386824493380    1.06072669105183
H           0.57993029372065   -1.62706213658126   -0.36662646115287
H          -0.55947875955831   -1.37707690200806    3.67130368072416
O           0.29726393108368   -1.82790303948913   -1.30234779536282
H           0.82312896461159   -2.58070564657195   -1.57601088009672
O           2.86054837958825    0.77404637842241    1.18773754543566
H           2.47817457476385   -0.09990079031475    1.00389477565244
H           2.61316423812807    0.92170760856619    2.11032752136158
O          -2.48574915582017    1.01110749171752   -1.96788947677657
H          -2.56145982166616    0.19617895921230   -1.39898042988946
H          -2.75290418366960    1.74060045931859   -1.40551873443817
O           0.80578939055538    2.01085800922608    0.03778557751409
H           0.16264640624685    1.54227031693609    0.61063032698305
H           1.68574139353913    1.73578219770244    0.38476043956419
O          -2.25696810717959   -1.03486632697314   -0.34907646846450
H          -1.78532561707402   -0.56798715592874    0.37279309934158
H          -1.59152164778569   -1.60500911088802   -0.75391364949644
N           0.14184143161542    0.75558284341826   -2.13487670849569
H          -0.90457968637769    0.92593192972949   -2.19129330857215
H           0.60985759228229    1.03343237853602   -2.98978131979455
H           0.49930701877903    1.32006075548193   -1.28238915887572
H           0.28156709887718   -0.25731331032928   -1.93690966684970
