    26
        -50.46611324  Gyration_radius:  2.47250950698 Dipole_moment: 4.698
 S           0.66008813930780   -1.80241070294354    1.07719161436891
O           0.68580860910011   -0.60528050004447    1.92238765267393
O          -0.22772956053574   -2.82133099551745    1.52402736127946
O           0.42183023311207   -1.41835321313828   -0.32625459091857
O           2.14319280628248   -2.35662687994014    1.09042312479710
H           2.66403546873440   -1.62841672002213    0.74387625185089
H          -1.22405031882141   -1.39042984147230   -0.06484461060634
O          -2.16683866920813   -1.20572314041420    0.13082464817798
H          -2.41876291938003   -1.90556120619756    0.73838671568764
O           2.66744417687618    0.54266939763057    0.79269557688261
H           3.26589544772310    0.87293287151494    1.46585881349279
H           1.89473344189860    0.15146349980044    1.28004779354697
O          -1.11409706568993    1.20015183637722    1.15467026808416
H          -0.46978973237356    0.63619200119201    1.62410579983748
H          -1.75058527211604    0.55743869686062    0.81240669257802
O           0.88242593022376    2.35546020518912   -0.26042923438248
H           0.12816795694623    2.15883792941691    0.33505827408586
H           1.63639462845098    1.85338489956010    0.10543504567342
O          -2.59301543448495    0.62891151895344   -1.82175505734690
H          -2.87699447713118    1.38333079297443   -1.29962670504021
H          -2.64782735594105   -0.14437147752997   -1.23063359748985
N           0.09345910184042    0.59113108194088   -1.99335651610141
H           0.54009684293711    0.51862572376450   -2.89992011665446
H          -0.95035197743963    0.65379543211277   -2.07872766667560
H           0.30362960817527   -0.25352857251555   -1.40251941231019
H           0.45284039155442    1.42770739235419   -1.41932811545238
