    26
        -50.45660182  Gyration_radius:  2.76300222533 Dipole_moment: 1.616
 S           1.03728285004966   -2.32648933016174   -1.23250117650048
O          -0.40368960500241   -2.35447362258359   -1.45737721299741
O           1.72728193045057   -1.52250422093285   -2.22259406728900
O           1.36670326019040   -1.95719960668484    0.13791173562948
O           1.55406093515031   -3.81827905715233   -1.40912203440822
H           1.45691420085896   -3.97919380133485   -2.34354606411163
H           1.92007118238769   -0.05461105638583    0.00866444576823
O           1.75329767232444    0.57457691256938   -0.70860186652572
H           1.87790848856463   -0.00043016873670   -1.49736088668971
O          -1.21720748167634    1.75340187769420    2.04389365225469
H          -0.88339744007494    0.88731074215098    2.30425419046152
H          -0.47331017423320    2.21288526253386    1.61466189082779
O          -0.32594441355854   -1.03948260640399    1.91241289198151
H          -0.81134997792344   -1.77102486225709    2.29683602717647
H           0.38017562069553   -1.44935224499485    1.35392098519742
O           0.83572997171784    2.83020130500682    0.55762278893779
H           1.53503501244306    3.39797908178986    0.88281306865103
H           1.26507910302424    2.13067333757647    0.03740298472037
O          -2.81785343442480    1.86750741101395   -0.11773873178149
H          -2.41253744079299    1.88418268880410    0.77827561820454
H          -2.80681212473097    2.77271166987086   -0.43123150420050
N          -0.93367356136129    0.00826244376002   -0.52574911673597
H          -0.91599006114962   -0.27171526940898    0.47683344959017
H          -0.94252350055150   -0.89778351542929   -1.06584538843660
H          -1.73959184062696    0.65195979930690   -0.67085763845080
H          -0.02565917174755    0.47088681038239   -0.72297804127513
