    26
        -50.47154831  Gyration_radius:  2.43855845521 Dipole_moment: 3.627
 S           0.28754287304420    1.21125836674356   -1.95821006415156
O           0.44096877909993    1.78922849675518   -0.62852350700266
O          -0.13765331984959    2.12301472867568   -2.96847425205097
O           1.75281432493971    0.71844144359514   -2.38584571875440
O          -0.48668028380991   -0.03169397813434   -1.88003348738265
H          -1.73207690147046   -0.27890454393011   -0.88717968090955
H           1.97118551141611    1.41884617506141   -2.98885092160144
O          -2.44735727669720   -0.45771261978483   -0.22641770642426
H          -3.24771359037389   -0.59920974056133   -0.73359531101786
O           1.17668899949209   -1.69432664604772   -0.78976158059995
H           0.55952338774245   -1.06723879650731   -1.24321959592017
H           1.72952194949767   -2.05894776287172   -1.48205471697576
O          -0.76754741485427   -2.17514369108208    1.13573020036083
H          -0.06499045797876   -2.24725735616850    0.46896148405208
H          -1.50062287759984   -1.71688463469839    0.68704460845069
O          -1.43741083531029    1.63614549949087    1.25803957698049
H          -0.78830502536170    1.88544841261404    0.56715712156624
H          -2.03397316838851    1.00627689281359    0.82044728229790
O           2.14768715106690    0.33956791659638    0.76095456238925
H           1.65348080974759    1.00691502291016    0.23626330324188
H           2.06583157673768   -0.47660349038011    0.23562290010566
N           0.17552674181706   -0.06996512425679    2.43988265256182
H          -0.50890840400794    0.68477376093613    2.12451389279002
H           1.08084226888332    0.11208580098364    1.90265070425696
H           0.31652258723649   -0.06393389367760    3.44264472754265
H          -0.20489738501854   -0.99418024907416    2.09225353619327
