    26
        -50.47300984  Gyration_radius:  2.48586241486 Dipole_moment: 3.128
 S           1.56328430293788    0.89016331862922    0.92698589777811
O           0.97475015712259    2.07514000418352    1.52092837134877
O           0.93772604922795   -0.34279126386089    1.36776416012218
O           1.64586406254351    0.99075739810956   -0.52325413973236
O           3.05628166933492    0.81800572215510    1.45446150041759
H           3.39529309077551    1.68711204133865    1.26615837373536
H           0.18502263234663    1.30142178432151   -1.28843669884837
O          -0.76123318850026    1.39639782360757   -1.53488686914625
H          -1.16346357142152    1.87375334680283   -0.78985555218058
O          -1.71253464759935   -0.44114844452476    1.49588297861216
H          -0.74159970646781   -0.50589012406735    1.61499427071570
H          -1.88388357825780    0.51545453716648    1.46525868064326
O           2.14425798741114   -1.63863888722493   -0.59506875968608
H           2.21419420395355   -0.76226785006080   -1.00088303137073
H           1.79227787998556   -1.42469944753426    0.28773908932379
O          -1.54370726785660    2.25502421265805    0.96962077712805
H          -0.58232977473768    2.22318254609530    1.21971659021820
H          -1.88548375901161    3.06782489378188    1.34557932389643
O           0.05940868810761   -2.90709521625450   -1.56142242693097
H           0.90621969373755   -2.45613313747909   -1.29601683230404
H           0.02619474788197   -3.71354901856655   -1.04450145178438
N          -1.74295304033250   -0.99672909586292   -1.07428086590172
H          -1.82657883004556   -0.89461242757419   -0.01541816253759
H          -1.34888257846497   -0.06222229828837   -1.40941785607716
H          -1.06377475958059   -1.76923736268904   -1.30081383630243
H          -2.64435044309521   -1.17922302485482   -1.50083354116249
