    26
        -50.47154835  Gyration_radius:  2.43858328847 Dipole_moment: 3.625
 S           1.53207672297440   -1.57492186868005    0.74544672042533
O           0.44429718441236   -1.88705890351018   -0.17364345972919
O           1.94909551729224   -2.65416443760198    1.57857969776848
O           2.78948039833346   -1.21203336093895   -0.18186489584991
O           1.24911537021765   -0.32126083160469    1.45199649434884
H          -0.21214474627024    0.14325575017090    1.94801771032855
H           3.28024234894417   -2.01897969842427   -0.08272631834680
O          -1.11807110370701    0.46403923771797    2.18615154749248
H          -1.13529211378660    0.52437015297484    3.14211738132371
O           1.59601501085863    1.47980211766173   -0.37966575096392
H           2.52996246437835    1.68993589391816   -0.41700038155339
H           1.50494019866719    0.79201243011033    0.32642701611029
O          -0.97128347455983    2.37239934134296    0.19595524119588
H          -0.02426357437922    2.29678393496015   -0.00602308268775
H          -1.10215946799396    1.85329147292304    1.00972059174743
O           0.53810888337827   -0.23796392783445   -2.22751665357689
H           0.56697370307668   -0.98212093954317   -1.58708580216926
H           1.05810627135679    0.46242857007596   -1.79413648910546
O          -2.11222750443156   -1.32580194772816    0.33775605849196
H          -1.23187051188755   -1.72052897319464    0.16486354850825
H          -1.98579163292559   -0.77857659446371    1.13063521969858
N          -1.85813976778960    0.53819653807662   -1.49831015211925
H          -1.63113361918973    1.38616742206819   -0.90725877521472
H          -2.58901484020271    0.72417172341140   -2.17411270590785
H          -0.94559389546009    0.23310532008439   -1.96247844860487
H          -2.12142783130333   -0.24654845197766   -0.82584430160629
