    26
        -50.47105792  Gyration_radius:  2.45184131628 Dipole_moment: 2.713
 S           0.79535478196990   -1.51104213286902    1.15314876654402
O          -0.19796808930445   -1.22167106017550    2.16743344418755
O           0.23588366093430   -2.23830339864369    0.01843760366175
O           1.53373913044687   -0.33870815901439    0.72044788582433
O           1.85710766373871   -2.46894764781965    1.83429868878030
H           1.32660365555189   -3.03521732603423    2.38616470361485
H           0.52961209275981    0.86105784105544    1.22585030948346
O          -0.18087648379908    1.50433730944648    1.44747879207957
H          -0.56761956068791    1.15878237403359    2.25639908062142
O           0.48058702251154    3.07345877111796   -0.75170051396813
H           0.35632292682736    2.79029647546791    0.16523228050091
H          -0.39005966972574    3.04689751864320   -1.15563752333143
O          -2.38559975400967   -1.45688814827903    0.67265016711755
H          -1.69892392021606   -1.34923922206499    1.36101110602447
H          -2.05815769524182   -2.18211897641093    0.13367234139682
O           2.08382334444382    1.03437873401775   -1.56522672915936
H           1.67277607901113    1.89742158101844   -1.35152763988120
H           2.23925604712569    0.60523743621026   -0.70798609271242
O          -1.86996257887012    0.85041657354897   -0.57471799435482
H          -2.30493861420589    0.06925356406580   -0.16764171591263
H          -1.33446973741755    1.22333059253571    0.15617842089143
N          -0.02980138250841   -0.47113611025538   -1.91666698413194
H          -0.25651040904032   -0.82385975813560   -2.83965291942315
H           0.85855085282415    0.12712345972375   -1.92425965613751
H          -0.82247851267742    0.11503673640559   -1.50887233735037
H           0.12774913956524   -1.25989703757574   -1.23451347435927
