    26
        -50.47117739  Gyration_radius:  2.46035497748 Dipole_moment: 5.159
 S           0.31771547899198    1.23812788891100    1.16776674442580
O           0.09422370589552   -0.17516070167255    1.49474924275566
O           1.64580643158429    1.47531546015814    0.65464011480569
O          -0.73095778234195    1.69212747174958    0.24513408851227
O           0.17756488503730    2.04773298258402    2.49381700610772
H          -0.75720119210119    1.93615763388798    2.75087516077385
H           0.04311438086837    1.62697701050363   -1.24504244867584
O           0.74943267356463    1.49035533403214   -1.91433649301604
H           1.52422163905707    1.85042648284982   -1.46590634650137
O          -2.04060082148595   -0.77696681801315    0.11577988727511
H          -1.25928880955097   -0.64449792589867    0.70356651371666
H          -2.14925842124540    0.07265703057038   -0.32378395347829
O           2.36660999218059   -1.06907941122826    0.53662995369207
H           1.53853621367062   -1.07032981806923    1.05781601867747
H           2.60270799531149   -0.12613351325896    0.58147519931720
O          -0.97231500430534   -2.50167004812596   -1.56250994280116
H          -0.93860883373613   -3.33783982872272   -1.09507056108177
H          -1.48193357475237   -1.88469802788642   -0.97508858301075
O          -2.41337985445258    1.46058412912846    2.29810762132883
H          -2.63461949088602    0.52490136972829    2.29243061050012
H          -2.07369817268059    1.66372500121741    1.40851526315490
N           1.28561129276087   -1.11024707476880   -1.86361095166288
H           1.79663603910214   -1.18517818992271   -0.92595985973745
H           1.02611051647188   -0.08650810907166   -1.98466583615957
H           1.87581573784154   -1.41863294099599   -2.62888146112615
H           0.40775497547821   -1.69214539753908   -1.81644696811718
