    26
        -50.45212370  Gyration_radius:  2.50355360899 Dipole_moment: 8.207
 S          -0.45755686588957   -1.47968737122778    1.61016356609727
O          -0.99547174430024   -1.60199878155712    0.23610863454430
O          -0.46797343447481   -2.69835910840852    2.34304450291269
O           1.06740041867768   -1.02987608067558    1.35780717534469
O          -1.03618598180891   -0.32439833514477    2.28224841468221
H          -0.96271400457005    1.08939388951171    1.72576701696510
H           1.33773819717043   -1.47134474592818    0.52676095186647
O          -0.91956654809183    2.00166163273691    1.28623510716021
H          -1.54538322266255    2.54380128506738    1.76746140580487
O           2.03134254234322   -1.64871331331412   -1.03649901375359
H           2.95207289858119   -1.90705001650757   -0.96846425669364
H           2.01280096929774   -0.73222243080802   -1.36652549096995
O          -3.05256831346799   -0.95016195494858   -1.49769947655558
H          -2.48147336620657   -1.38426912601272   -0.84144673752955
H          -3.75202264936753   -1.57318975446457   -1.69625571031879
O           1.77441010100204    1.57611364103578    0.96577695557226
H           1.69015020653341    0.67079851203806    1.31445318703518
H           0.91787260972819    1.98844848536358    1.16631948970370
O           1.82610161634483    1.05420248293573   -1.58079782069190
H           2.41520816855716    1.64532272282235   -2.05032537049926
H           1.88167578937217    1.30624590658652   -0.61095666584570
N          -0.84030934437738    0.61400456617113   -1.01455371219781
H          -0.99298378671741    1.33258824023601   -0.27927928590777
H           0.04912360528337    0.78062680139489   -1.50373740789887
H          -0.81160222735033   -0.34515462584266   -0.49123129703120
H          -1.64008565368838    0.54321745889876   -1.64437414178894
