    26
        -50.47362561  Gyration_radius:  2.40492934306 Dipole_moment: 3.720
 S          -1.17077671756891    0.71768560449442    0.51583941121913
O          -0.87132743436320    1.18918156681742    1.85288848279518
O          -0.51587386773878    1.50140106391010   -0.52238525557496
O          -0.77955303618355   -0.70225889206722    0.37862702560884
O          -2.69955620738764    0.79052645168037    0.30722103056256
O           1.45607625799748   -1.09560474923831   -1.06498133557334
H           1.18609327878238   -1.34401125153208   -1.95133812151628
H           0.62291569587765   -0.90598388100147   -0.58629668351029
O           1.28208756595480   -1.83173316551349    1.74205741292232
H           1.76389316833317   -2.06415213562828    0.93986719212736
H           0.38717390780372   -1.59661868250818    1.43176189408817
O          -1.62014913549054   -1.63141613625401   -1.95380840711243
H          -2.29790565257435   -2.30027778812573   -1.84540691125649
H          -1.35069308555648   -1.36226462454270   -1.04863608714201
O           2.12922433705413    1.43365372714955   -0.31490629865311
H           2.20744013462318    0.55723008961084   -0.73362406792832
H           1.19173623750823    1.67708756148501   -0.47246056392752
O          -2.46460598247531    0.92898460551014   -2.24751847699749
H          -1.63640674891454    1.37740538853293   -2.01140698029229
H          -2.21846884210496    0.00020829097657   -2.42535605054639
H          -2.80664005925286    0.87290790517042   -0.68447730105568
N           1.67006219602598    0.76644121955473    2.16867830229864
H           0.63740949566691    1.02348113199734    2.18273758734214
H           1.69768812978844   -0.28558387451626    2.17221684741224
H           2.02905273286549    1.11156289974420    1.21970514853745
H           2.17110360132213    1.17214766429350    2.95100223617438
