    26
        -50.46007494  Gyration_radius:  2.61947306842 Dipole_moment: 2.961
 S          -0.40604395398371    1.16014070438225    1.92908209211068
O           0.80044947540176    0.41348048857879    2.26943034118041
O          -0.17258303129657    2.21517509511401    0.97620439918126
O          -1.49012732362735    0.26044187984455    1.53630672108179
O          -0.88788588987847    1.85865398735460    3.27060394243319
H          -1.05794913434236    1.12853248730656    3.85796766662202
H          -2.00057482146502    0.67300616471701   -0.28024679899810
O          -1.51238231507787    1.16921329010014   -0.95466451123864
H          -1.00632028498986    1.80020088298690   -0.38876680635578
O           0.18390874621030   -2.89236175668430   -0.69406536274604
H           0.07280242044762   -2.65283948412238    0.26433116780684
H          -0.57811729048831   -3.42668502435262   -0.92098715844165
O          -0.23283186739903   -2.02983605252419    1.75656495313096
H           0.51798618065388   -1.53745724733503    2.11433891756081
H          -0.89955990706033   -1.31907158514748    1.65003747550558
O           2.44975903636620    0.37974457858989    0.24220492814448
H           3.14867994304254   -0.20058378220781    0.54981988765114
H           1.85651042663740    0.52505234860566    1.01848061345577
O          -0.39730855154165    1.13402224451729   -3.60441102696164
H          -0.36958227973229    1.93754313163661   -4.12492271015009
H          -1.00197479976307    1.30434112690328   -2.86875724983323
N           0.60801900153805   -0.39237505885744   -1.53268803161846
H          -0.24641438760584    0.15762393488858   -1.25388659391145
H           0.76192740377426   -0.18651496223587   -2.52109928144904
H           1.41044407365800   -0.06615661386966   -0.93817170910465
H           0.44916914048226   -1.41329076820945   -1.35270585503368
