    26
        -50.46407562  Gyration_radius:  2.49584912588 Dipole_moment: 4.505
 S          -0.13563850348091   -1.69694811922615   -0.11780715889314
O          -1.17425039224448   -1.28799239648156    0.81872922351341
O          -0.34628652358180   -2.99184493418538   -0.69838833611867
O          -0.24196710003444   -0.61348977946621   -1.31834544240458
O           1.19668636692619   -1.45124563594885    0.41178066344137
H           1.04382728445903   -0.62481470947715    1.87552738744563
H          -1.10705981106060   -0.85058715325913   -1.71698902371140
O           0.64473233097466    0.01356651804587    2.50702587705672
H          -0.20788229693220   -0.37803433543011    2.72193449775252
O           2.61887127072189    0.06165644756617   -1.26260496050918
H           2.20806804164122   -0.53971234587721   -0.60682230145863
H           2.19113383191015   -0.14467044969972   -2.09602203643258
O          -2.48822602597310   -1.88109298967204   -1.73745594738274
H          -3.04043794891907   -1.73616948627556   -0.96522191640836
H          -1.85337680342420   -2.57825657869560   -1.47728727052009
O           2.38162090487241    2.59273339170636   -0.46454991185094
H           2.57869462899142    1.70194065078844   -0.84201721533848
H           3.10081840827301    2.78848269818297    0.13800352700665
O          -2.49154438169981    1.02411581298884    0.79364069866857
H          -2.06661241926388    0.13960230344432    0.81668328060667
H          -3.34793354050617    0.92351551253077    1.20960779171278
N           0.10482827408266    1.53470727451473    0.39987188946512
H           0.01487914388599    0.78968007174802   -0.31293138738894
H           0.89141032233223    2.16925680976723    0.11585172529489
H          -0.81171258251210    1.98219364729997    0.48910001326239
H           0.33735754056455    1.05340778513325    1.31868633319303
