    26
        -50.46444879  Gyration_radius:  2.59169130019 Dipole_moment: 2.446
 S           0.71457737554351   -1.94336900188038    1.24893739865319
O          -0.48654746931628   -1.39997339781962    1.86178672853280
O           0.48343803886717   -2.51927329466155   -0.05692591197327
O           1.79560075299852   -0.96198092887951    1.24257756139949
O           1.18538848694346   -3.13153627714985    2.19119351123701
H           1.01768729827735   -2.79569261019967    3.06643329141973
H           1.12696054281086    0.49068167777155    1.36241968440357
O           0.77411395007778    1.41215155038128    1.24902966438999
H           1.40531013458169    1.99630460598119    1.67163427320787
O           2.13848685542797   -1.11318301879380   -1.52976631154269
H           1.55552824054511   -1.80239370883948   -1.13994256195112
H           2.70409713460692   -0.87059651126369   -0.78854514197071
O          -1.96239134466865    1.85205771425318    0.51092662924251
H          -2.28099664590970    0.95259337939572    0.37503042972633
H          -1.14879828665896    1.76327380391140    1.02600846191817
O          -1.33568541593628    2.77048978012799   -1.96830140294799
H          -1.63970136550017    2.57869549906028   -1.05448596628641
H          -2.06360471858882    3.20626287436486   -2.41087247927186
O          -1.77275910407743   -0.91283771085188   -0.32225609141777
H          -1.72287916735700   -1.76479373144684   -0.76387799596660
H          -1.37223461896686   -1.08612428932512    0.56891816571621
N           0.18661386414066    0.66391360973962   -1.29913082439742
H          -0.61598206094894    0.03863723039714   -1.02943442862483
H          -0.15043130928277    1.37398235608524   -1.96187759094841
H           0.47866973492548    1.14289173912793   -0.42452849540385
H           0.98553911746451    0.05981865051210   -1.62495057714502
