    26
        -50.47059109  Gyration_radius:  2.47517754374 Dipole_moment: 3.224
 S           1.07102551818630   -1.05077475276582    1.58427703968103
O           0.61564161226454   -2.08797726313908    0.66657221546244
O           0.13120374370392   -0.77746654096973    2.64285988155952
O           2.37891336868113   -1.62041839385476    2.28127901671608
O           1.51594718719378    0.14256804160166    0.87401252988491
H           0.70732571891738    1.52516705841000    0.81908637933071
H           2.00777283353888   -2.20585025120650    2.93254496065104
O           0.17886431865586    2.36097789641284    0.75063443390925
H           0.70566126372955    3.04228492137397    1.17061106733360
O           1.87329976563365   -1.08835530591281   -1.42070851989751
H           1.50149605216684   -1.79091538909938   -0.85388758055142
H           2.07421765933961   -0.40647278054977   -0.75592297606410
O          -1.85107780309369    0.54259017119320    1.44507710944243
H          -1.36311637765457    1.35172603881093    1.24320414057928
H          -1.25601235147377    0.04412666452824    2.03938099399213
O          -0.93261269355162    2.33568439985357   -1.68669972256989
H          -0.44985218206722    2.42997949352022   -0.83741841767204
H          -1.85793178490485    2.47487390069068   -1.47436063991138
O          -1.73998107698482   -1.40770966952218   -0.36105056825101
H          -0.96382674768905   -1.83657172251884    0.05596730214087
H          -1.98794706276053   -0.69575686398679    0.27243420377202
N          -0.47400100042442   -0.24893081987797   -2.30778233135183
H          -0.72541316825457   -0.52985360244220   -3.24867321287453
H           0.52579644970327   -0.53354167537776   -2.08354657972796
H          -0.59748235821950    0.78186862729437   -2.17828147442568
H          -1.08791090462354   -0.75125217248298   -1.56960925116502
