    26
        -50.44553257  Gyration_radius:  2.48525926675 Dipole_moment: 6.695
 S          -1.74387797332026    1.37785817701915   -1.01798603312948
O          -1.11330244728548    0.77252462463390   -2.16247568045666
O          -3.15824201540796    1.45185534477512   -1.00584597840238
O          -1.26173902506886    0.58123385386133    0.26077702152361
O          -1.09979215700670    2.73061697361474   -0.72416298454157
H          -0.13653621193698    2.64417165386359   -1.08742051405126
H          -1.44319353597756   -0.40820363973071    0.20503273836777
O          -1.53665408643627   -1.96728435548676    0.37352113547993
H          -2.31313319889336   -2.19434890261237    0.88797670906174
O           2.13260282627871    0.31786665915213   -0.27017618999067
H           1.75468498960374    0.41849295582795    0.61765357003318
H           1.62188935145988   -0.38634613269047   -0.71961507491642
O           0.43851827746844   -1.33486667888547   -1.58210181567694
H          -0.18870497308022   -1.93099071916528   -1.16315492012445
H          -0.10456769316411   -0.61589611416267   -1.95567997721052
O           0.73323883878716    0.83317201723569    2.09139091234420
H          -0.06460602026790    0.85711763372727    1.53426656885703
H           0.88996014648751    1.73173622688898    2.38745293499862
O           1.16762946479810    2.28926446468806   -1.70495123507191
H           1.64781367423397    1.61026138961886   -1.15060964936187
H           0.84764506684020    1.80873905650259   -2.47629836695776
N           0.66994741882715   -2.14658114205546    1.80486973611123
H           1.42365663433506   -2.31035177860397    1.14758019122353
H          -0.72680258620327   -2.10923907233636    0.96320581246445
H           0.76853229026469   -2.80877490446416    2.56383072619367
H           0.79503292470797   -1.21202759151117    2.18292037304778
