    26
        -50.47168698  Gyration_radius:  2.49106137427 Dipole_moment: 3.003
 S          -0.50985654608763    0.14001701663055    2.24122048083537
O           0.24730270666991    1.38712225880917    2.24891337263031
O          -1.86894689625924    0.28792845543273    1.78664412033753
O           0.22110191260779   -0.89712968833009    1.51674721187753
O          -0.58158968001284   -0.33287832310206    3.74950979713388
H           0.33285324009258   -0.27944747397931    4.00479001700783
H          -2.27480252042044    0.39810784976690    0.24522134589158
O          -1.06772080782806   -1.99799894871866   -0.54887536314265
H          -0.64713488658292   -1.71630898608977    0.28933879009462
O           2.38298059146422   -0.76696024268285   -0.08040392659942
H           1.71175699442284   -0.99032440448612    0.59355235137783
H           1.99685805207129   -1.06748201300991   -0.92317790685267
O           0.77704712786360   -1.30499658986607   -2.24821644074922
H           0.85077304063467   -1.94448769157363   -2.95673882164500
H           0.06699020309214   -1.64832766546151   -1.63017087367305
O          -0.24399461190845    1.24083870180159   -2.00512087002870
H          -1.10944105316562    1.02105130547454   -1.61003616832789
H           0.13233329778384    0.38687217584716   -2.28549800449481
O          -2.49125140826333    0.39772160826945   -0.72212802473171
H          -1.77139755182780   -1.35107970685214   -0.70403338172356
H          -3.38304227565171    0.74088487706995   -0.79287312237477
N           1.45833265868261    1.68912434536769   -0.03816763114788
H           2.05031746902699    2.50883663531721   -0.10755425798408
H           0.95135068686946    1.66438833876410    0.89379797158579
H           0.75124869294794    1.65066393077741   -0.83101012884601
H           2.01793158374862    0.78386421481530   -0.08573053644618
