    26
        -50.47362557  Gyration_radius:  2.40489436564 Dipole_moment: 3.721
 S           0.68636676692523    0.15550247351774   -1.28735117811716
O          -0.70176422977118    0.58121104639440   -1.40135011270798
O           0.92136730352799   -1.16012287393290   -1.84735804623354
O           1.58231102586821    1.16759975542182   -2.03490198318312
O           1.09224898906494    0.18187045470152    0.13484554457066
O          -0.96388980975809    0.17590613503658    1.86928046842992
H          -0.25053078550154    0.22307719386168    1.19987640426328
H          -1.10433603277084    1.08183106832110    2.15168609095919
O          -2.36112106758813   -1.04765132449441   -0.12189377058778
H          -1.93060852460973   -0.42067315384422   -0.74202212165430
H          -2.17070432907641   -0.66446138446269    0.75359425002617
O           0.97814455946155   -1.98536679329994    1.77064109339335
H           1.30562199613373   -1.25474273584609    1.21266563565002
H           0.36072228879655   -1.56638309357048    2.38131799716205
O           0.95436097374891    2.66229228704876    1.05041980635769
H           1.82095977615555    3.00808566077117    1.26912990953620
H           1.09426187433246    1.73943650425838    0.74523607681142
O           0.04021352344764    3.14002082473105   -1.45804111708493
H           0.26702638747937    3.23581091356338   -0.51245256784143
H           1.10403458491057    2.04052495280717   -1.93030832724839
H          -0.63705731430222    2.44525363746159   -1.49459966652871
N          -0.42659834172758   -2.78932187095679   -0.34204415738641
H           0.10662762837517   -2.71200442144241    0.56194069303416
H          -0.57918994974479   -3.75116782710356   -0.62355155566552
H          -1.33787461366715   -2.23351597792972   -0.24635063895386
H           0.14940731028570   -2.25301145111883   -1.05840872698052
