    26
        -50.46886235  Gyration_radius:  2.50876248343 Dipole_moment: 1.100
 S          -0.09884250531390   -1.04805312141392    1.95670001185687
O          -1.33368642387890   -1.45892872936597    1.29082996125988
O           1.03665213086190   -1.85628937340580    1.61301206557647
O           0.13815610166442    0.38327851737187    1.75321218684613
O          -0.35652337851149   -1.23014923223477    3.50621495776556
H          -1.15304929144191   -0.73129747656986    3.65957391312392
H           1.34148501961907    0.88055158068876    0.80169930104450
O           2.07032633024761    1.15874364448925    0.19116203377269
H           2.71960322620221    1.59825448126782    0.74231715450854
O           0.81756779409733    2.31472423889470   -1.93560146746824
H           1.41088231762410    2.16573165608002   -2.67296978838474
H           1.27066513358903    1.97679359639255   -1.13960180854094
O          -2.22674420517053    1.09472939698889    0.74521783506322
H          -2.55720850659998    0.19798709428018    0.86875491217046
H          -1.33091662980394    1.06287661189348    1.13081967563745
O           1.92533649548476   -1.38092195770743   -0.83780072268852
H           1.77972331258267   -1.74239635246511    0.06083380385917
H           2.19321983832774   -0.46178511437228   -0.67448137256392
O          -1.55214459766347    1.01551854024901   -1.85482513411619
H          -1.92568715631568    1.22798887158956   -0.97097714996291
H          -0.77156030649659    1.59707402713100   -1.95463438555463
N          -0.68362768653751   -1.36760535068412   -1.27369092472446
H          -1.04179909159168   -0.40149358073964   -1.60664553660553
H          -1.04335477048329   -2.10994720830951   -1.86390802143682
H           0.37747861432715   -1.38485093324745   -1.25412654662626
H          -1.00595178480554   -1.50053382680801   -0.28108494381930
