    26
        -50.46745652  Gyration_radius:  2.47171717993 Dipole_moment: 4.319
 S          -0.90437364159316   -1.08197525525580    1.05409765050926
O          -0.82878446498212   -1.10467653389267    2.48812796508893
O          -1.97268462059151   -1.82870182640550    0.44345613407620
O          -1.14519840200377    0.43542930390685    0.61538208700645
O           0.39920207378711   -1.41368223313300    0.42572768498730
H           1.63733174051285   -0.59979648051830    1.02270453065201
H          -0.65616598789665    0.92829379713947    1.32272570369009
O           2.35300268428865   -0.00430239652521    1.36899174370057
H           3.04634184793914   -0.57867362813510    1.69608424097339
O           1.70542838775739    2.32752943169272    0.03375669903313
H           1.30106156994188    2.76249364210948    0.78908456081758
H           2.10179074354909    1.51299907477365    0.38231493906734
O           0.27989763972432    1.26814298352049    2.62360190251314
H           1.17451498000373    0.96928553122085    2.38416964928505
H          -0.14528043116949    0.47164814871380    2.99476689608199
O          -0.28478976460478    1.73204971959291   -1.67334361090037
H           0.51214151721954    2.06251003895903   -1.20470585603398
H          -0.91604219390184    1.54029787134072   -0.96469238861060
O          -2.38225087168249   -1.87164366958440   -2.12289120376162
H          -2.29542870502529   -1.97311784070267   -1.14056992751863
H          -3.17692282968731   -1.35278448278878   -2.25887165451677
N           0.05884750340963   -0.84453022648547   -2.08451290932161
H           0.76143748778476   -1.17906282386210   -2.73452052247156
H          -0.89049594489836   -1.24755852346067   -2.30050529714091
H           0.27577257122241   -1.14790760566840   -1.08507753672859
H          -0.00835287928092    0.21773398315792   -2.07530149040767
