    26
        -50.46533371  Gyration_radius:  2.60023396507 Dipole_moment: 4.141
 S          -0.52324976161611    1.07701031973461   -0.30551022946328
O          -1.60559115210755    1.22595225361278    0.65513008941354
O           0.72276968324450    1.66602735512431    0.16128662930329
O          -0.34122465956825   -0.34961005529324   -0.63105774417742
O          -0.88198676088325    1.82338815321484   -1.61052078558743
H          -1.75179229796875    1.48227325072690   -1.96210286726619
H          -0.43657165322830   -0.97101587095511    0.94039528731284
O          -0.48396292262447   -0.99420845114530    1.92028073760651
H          -1.15196190022511   -0.32924669330010    2.12428018384869
O           1.98180955022610   -1.18917609894951   -1.51086059977980
H           1.12728045705755   -0.79400949306005   -1.21800899199993
H           1.75385378762129   -2.02325698715097   -1.92484101582537
O          -3.14878865660735   -0.67332158090820   -0.29059268170377
H          -2.68702882230990    0.04875853229134    0.19266363060468
H          -2.45351365548971   -1.29827937777392   -0.51624596429335
O           3.66424510662678   -1.05426753898863    0.51544114717023
H           4.38511894445010   -0.51540272339622    0.18457742147301
H           3.05990453352798   -1.18659792378567   -0.25846432455105
O          -3.21521291294588    0.95243570295093   -2.35963624157858
H          -3.33967018431554    0.25421118004437   -1.66769317159922
H          -3.85622624198534    1.63970320514290   -2.16606616059258
N           1.85901521930223    0.24228110199059    1.97799279183644
H           2.18292011982610    0.72590943747160    2.80790406894873
H           1.03723899866376   -0.38224838490396    2.18126206930792
H           1.46986349197285    0.92840620714030    1.24655679371811
H           2.63276166935022   -0.30571550982373    1.51382994786457
