    26
        -50.45816721  Gyration_radius:  2.48018713475 Dipole_moment: 5.676
 S           0.33939073960426   -1.28321082035876    1.69555551757228
O          -0.64060481693928   -1.54293474756500    0.62858328385945
O           0.05695978903791   -1.91413011099769    2.93471610557935
O           1.70945549295736   -1.84407160104133    1.14045801694744
O           0.54147117896291    0.17780933054651    1.79601720924342
H           1.40789164197947    1.04071324075427    0.85975508523162
H           1.77385781482877   -1.50137188787153    0.23327941532673
O           1.95423353198855    1.56625547864319    0.19845986399471
H           2.65093986727096    1.97963335995041    0.70990638851136
O          -0.48676216025054    2.39234076673109   -0.87588437217890
H          -1.05454062849602    2.27685339923493   -0.08805904949760
H           0.42360189351126    2.37828113795252   -0.54048887400334
O          -1.70680211045871    1.45364874871863    1.32131004765430
H          -0.91301649320488    0.92072220427512    1.55259368550559
H          -2.10645369337737    1.70871108739874    2.15305119601969
O           2.14242777459545   -0.63685792166952   -1.28410199715791
H           2.16830923297145    0.24328305020745   -0.84277302374559
H           3.04831756368400   -0.87239952168976   -1.49073196580957
O          -2.70121989893326   -1.87314170178024   -1.22111569149516
H          -3.57724381371742   -1.81467313799570   -0.83764341683654
H          -2.09365235194509   -2.00412488426071   -0.47606906937108
N          -0.58555330592967   -0.15565438943438   -1.54618614568917
H          -1.43333600553403   -0.52138635468365   -1.98918495746127
H          -0.61761872260615    0.89758030288742   -1.39815964820393
H          -0.56032319558741   -0.64470374964402   -0.58752200624689
H           0.26027067559947   -0.42717128831805   -2.04576558774335
