    26
        -50.44553255  Gyration_radius:  2.48515727523 Dipole_moment: 6.691
 S          -1.45006841398242    1.92730727957758    0.39522125539438
O          -0.13288804841991    2.48042069657576    0.57697388474653
O          -2.39345685871680    2.69449704066831   -0.33102106032140
O          -1.27740896485768    0.52355768121838   -0.31324165397040
O          -2.00768572013976    1.45987581792238    1.73761817095988
H          -1.17259022542065    1.23174969020876    2.30131859186924
H          -0.76190157792848    0.57480171448202   -1.17731760162271
O           0.04854917228644    0.33669454885214   -2.50184198181374
H          -0.54900385572707    0.30835722065584   -3.25096321949888
O           1.85046026960771    0.95329373027159   -0.38130564152870
H           1.61596070354384    0.88816308929775   -1.31136095027569
H           1.24942929608947    1.62821141254813   -0.01419871968356
O          -1.04953245578249   -2.06207304584301    0.49736397251104
H          -1.63990810579864   -2.30823751199658    1.21182664646712
H          -1.30030367124416   -1.16197502964987    0.22444895383999
O           1.28330048085257   -0.90286686439553    1.50378594400994
H           1.60539791086707   -0.31765774091322    0.78781110346460
H           0.55632834112755   -1.42823774042415    1.13406097032236
O           0.16308802792560    1.00451036601394    2.91178827438113
H           0.62516111595146    1.77661514296740    2.56734381738682
H           0.61357447460947    0.21720582599602    2.49200578990774
N           0.86042878642190   -2.07359949977050   -1.80827901441425
H           0.18889517241641   -2.36727998282084   -1.10484156501748
H           0.96059447076390   -2.82389876838580   -2.48002526817944
H           0.36164579417263   -0.60896468917821   -2.32470850270219
H           1.75193387141690   -1.95047036392996   -1.34246218623309
