    26
        -50.46873374  Gyration_radius:  2.55121941711 Dipole_moment: 1.250
 S           0.89722318535214   -1.92807258033865    0.46835649291876
O           1.22626388735430   -1.00529548041188   -0.62181715686305
O           0.47666880403862   -3.21973224150379   -0.01913648708340
O           2.24904766961637   -2.15098199038953    1.27008496147863
O          -0.02688759120009   -1.32475251542649    1.40669652879954
H           0.05843162566059    0.23471046615055    1.78432721782238
H           2.73814414271699   -2.75980560403810    0.72462112470262
O           0.08601556488094    1.20560145946766    1.97932905499725
H          -0.00752142697871    1.28785761010625    2.92924397164415
O           1.97863195330549    1.51615137561901   -0.03358314783885
H           1.48662960201057    1.58201642482513    0.79896239183661
H           1.86729704206167    0.58888527168070   -0.31194209331271
O          -1.59763885533425    1.92917857923194   -0.05675274864185
H          -1.09384359056462    1.77294262187523    0.76367558884186
H          -1.00035489404233    2.45905656607806   -0.62877793295925
O           0.35132752648629    2.91206772180133   -1.59637713793395
H           0.67990354229093    3.80907102434681   -1.66025166979633
H           1.04212197301390    2.40191854364367   -1.10287021322168
O          -2.06377225656837   -2.51706181175049   -0.11125938552763
H          -2.15080196410937   -2.25077066985116    0.80886254509931
H          -1.19070065686428   -2.96548459491978   -0.14915709915541
N          -1.21437668645620   -0.31269173445171   -1.34930619942976
H          -0.19352108792276   -0.50766059932882   -1.18848853381535
H          -1.72402089190341   -1.14080985974682   -0.94257090003450
H          -1.46873246180715    0.59252046081942   -0.82135490314658
H          -1.40553415520987   -0.20885847353584   -2.34051426942300
