    26
        -50.46387556  Gyration_radius:  2.51680892666 Dipole_moment: 3.108
 S           0.76414208551997   -0.42365907879346   -1.80192896880362
O           0.40760906490911    0.98790424787551   -1.84549947453313
O           2.17533555604795   -0.66482076416689   -1.64512527567198
O          -0.01239408920139   -1.12291857979130   -0.76305296215158
O           0.30490868222947   -1.05281693825498   -3.16814354309126
H          -0.63898941265695   -0.83334016288189   -3.21086655965483
H          -1.24914794587292   -0.30895091119584   -0.06586899709527
O          -1.94487362697186    0.24142313283435    0.36455761263065
H          -2.60871126252549    0.36173668259178   -0.31912270309142
O          -1.98207157165663    0.40432785986662   -2.69159096944539
H          -1.16546883489104    0.80568709813499   -2.31912516139746
H          -2.26604782134227    0.98535192964421   -3.40039025250226
O           0.15995867073050    2.04880735335893    0.61173722644656
H           0.42857039521112    1.83665526555961   -0.29942111405892
H          -0.72152051351136    1.64884506656020    0.68751426730494
O           1.36762387922353    0.59121344559582    2.45644385777445
H           0.53432318326772    0.23391362653905    2.82701226911260
H           1.06037930654537    1.27446061630845    1.80895618034456
O          -1.13155299073411   -0.33893500712718    2.94066670385110
H          -1.50470932020221   -0.22390093090211    2.04952394683743
H          -1.70572876111735    0.14446335414847    3.53661935268484
N           1.97633689264348   -1.34413097435604    0.87612506289563
H           2.38562853362571   -2.17050771687238    1.29795496036823
H           1.03497993525354   -1.52596171676460    0.45037165907040
H           1.83704408966480   -0.52367163134547    1.59325871287363
H           2.49437587577041   -1.03117526653404    0.02939418928595
