    26
        -50.46828324  Gyration_radius:  2.47669610211 Dipole_moment: 1.547
 S           1.50600809054541   -1.14358368931076    0.96081196274463
O           0.24246018931891   -1.64228753319556    1.48848297017605
O           2.18012926539982   -0.22335743211833    1.84762875723497
O           2.47567638112009   -2.39442088903003    0.82538571299284
O           1.33431161486464   -0.61596185494149   -0.38485016603139
H           0.80676056505148    0.74668431609417    2.44909140595727
H           3.05870597290882   -2.24132725051720    1.56134691280957
O          -0.16819222086686    0.78319726011892    2.46328871364208
H          -0.39000107455355   -0.14913766518818    2.29658838139794
O          -0.02541095473690   -0.28179565539532   -2.66478336769557
H           0.47219363425007   -0.49149973241319   -1.84815484758447
H          -0.17346566127815   -1.12357222168060   -3.09846466871173
O          -1.82137416694944   -1.98792843237453   -0.10085539234000
H          -0.99870792368444   -1.88613575604556    0.42916454635141
H          -2.41534211190124   -2.51170421410900    0.43848321292250
O           1.39861573172515    1.90928837937027   -1.13531972755718
H           1.58605958755590    1.01984766791876   -0.76273352184887
H           1.18213512056084    1.74114982971954   -2.05788428342898
O          -2.21045883073458    0.40629289225432   -1.23811035037366
H          -1.52940638546385    0.26753964550926   -1.92834201943715
H          -2.23429074199040   -0.45818051079899   -0.77675828400925
N          -0.86683930499059    2.07932172655712    0.25446321111116
H          -1.50642003144254    1.42878428207057   -0.31475292763596
H           0.03609253093851    2.16824276003185   -0.28555687459929
H          -1.29934074208801    2.98422137183154    0.40154691033738
H          -0.63989852045781    1.61632270803511    1.18028373404038
