    26
        -50.46047171  Gyration_radius:  2.3800053466 Dipole_moment: 7.205
 S          -0.07329434434126   -1.47578954578183   -1.35105781034871
O           0.64279314381642   -2.53655626187698   -0.68236735403246
O          -1.11056781513599   -1.83780540574439   -2.26636149642972
O          -0.82289901450869   -0.67558981690418   -0.16633433626445
O           0.84597460066708   -0.46242115741877   -1.91322480784933
H           1.52172751020737    0.47943589043374   -0.94108689731531
H          -0.52238833097717   -1.04363570030432    0.68816221148530
O           1.89312972170940    1.15100791466880   -0.28100323903774
H           2.61875145127148    1.58334011755055   -0.73413298982036
O          -1.29534405528230    0.92913391614013   -2.34167400412716
H          -1.89674626678952    0.17523080273760   -2.36495734574641
H          -0.42191493195002    0.47834793905823   -2.39446522177319
O          -0.04244618182808   -1.32579865406709    2.31435663622375
H          -0.21554250609600   -2.24385819031261    2.52985469415579
H           0.90969668602986   -1.30065603106898    2.00052569674226
O          -1.72527271257579    0.85764927532304    2.07176881176644
H          -1.06665048650402    0.20286724160160    2.36155930131061
H          -2.44617564926431    0.34268178690118    1.70075913143687
O           2.21217410035479   -1.32922185682007    1.06015405496309
H           1.79203102304093   -1.86836535368169    0.34975964795942
H           2.31774603943764   -0.43917726515292    0.69598064138968
N          -0.62947889645612    2.09481685322799   -0.05998130890788
H           0.39209385531669    1.86206648959402   -0.05259933598724
H          -0.78054317138198    3.09816985950688   -0.06138129696340
H          -1.02575830805192    1.64223272519376   -0.94480824152357
H          -1.07109546071327    1.64189443719795    0.78255486869319
