    26
        -50.45854970  Gyration_radius:  2.42057980023 Dipole_moment: 7.166
 S          -1.99966124439481    0.64410990081577    0.56161624092509
O          -0.98986775584598    1.67913253247006    0.80314088238074
O          -3.27629600816442    1.14264739700921    0.19151793624763
O          -1.44461787764164   -0.33366219622457   -0.40988647069038
O          -2.12804300597995   -0.17573108365561    1.90114206629851
H          -1.28589908211062   -0.66354041146845    1.95730770996232
H          -0.66907963353573    0.85080985243943   -1.31381731795537
O          -0.10129103986769    1.44950561043958   -1.84484634588758
H          -0.33953660575131    2.32888245413520   -1.54387536120291
O           2.20639578928849    0.64181237586499   -0.68063746370992
H           1.50326198028920    1.07476575170560   -1.21229313495176
H           2.07158281335136    0.95601534829264    0.23022098728876
O           0.31421848995901   -1.32605136793583    2.15940367592851
H           0.78508503210218   -0.46408711894072    2.09846801603240
H           0.33384110210116   -1.58413382408176    3.08263528967299
O          -0.49885755659465   -1.31451946500330   -2.94630143040497
H          -1.24642061202773   -1.16148350874211   -2.35364772824586
H          -0.21452347551780   -0.43397394984263   -3.21275824785434
O           1.24797894066662    1.14575440688356    1.83071971435532
H           0.35424300764577    1.39309821457068    1.41913075083715
H           1.41778871505305    1.81440656593134    2.49543365702844
N           0.82010849531890   -1.57041015702436   -0.63143614746702
H           1.53930724011912   -0.77711954608829   -0.62991754493980
H          -0.09955472940050   -1.12808390042884   -0.32450576461336
H           0.62856742187957   -1.85184808437964   -1.60978301215138
H           1.07126958906235   -2.33629581675195   -0.01703096689331
