    26
        -50.46604943  Gyration_radius:  2.52064601773 Dipole_moment: 7.374
 S           1.38477091405338    0.33182904187649    1.15614672493325
O           1.41961541509274   -0.88083808628166    0.33083752793725
O           2.48272872278287    0.41327717250149    2.07606411956906
O           1.51553789916730    1.53216692070495    0.11214891170956
O           0.06632791076803    0.53001004598886    1.74505728496185
H          -0.76512990391265    1.69526782936569    0.97088643461342
H           2.42889088950794    1.40673969782395   -0.21257082574092
O          -1.14354762265503    2.31295459488210    0.29670077555798
H          -0.36852670930273    2.76889226161479   -0.04491950497202
O           3.91820846860538    0.47124953430629   -0.12897120195656
H           3.71306426760209    0.43143665186647    0.82575624209585
H           3.70679898890975   -0.40417459131405   -0.46427977107370
O          -0.82505312979283   -1.93993922987507    1.45359289321618
H          -0.00913693935443   -2.09612190780021    0.95948713620625
H          -0.67540304914754   -1.04023815717627    1.80302199274716
O           0.37498047103396   -0.73632436245171   -2.01607889638053
H           0.82112869695271   -0.74338792303281   -1.12456991848564
H           0.34762242350094   -1.65280332088043   -2.29763149428471
O          -3.00701392092709   -1.49223870175377    0.07462272777887
H          -3.66367676226654   -1.29640917408501    0.74486692097694
H          -2.19418979160520   -1.77584234422115    0.57579131276656
N          -1.92142607045008    0.44097261440017   -1.38456862714181
H          -2.47847369145063    0.76708824066770   -2.16671670114497
H          -1.02292115880972   -0.00225480720293   -1.72136778865540
H          -1.66166469502259    1.24898306200909   -0.73646950018125
H          -2.44351163323534   -0.29029507192631   -0.82683676504569
