    26
        -50.46539904  Gyration_radius:  2.43468466707 Dipole_moment: 6.433
 S           0.85856595550910   -2.07343750008136    0.68696575991639
O           0.41496689422608   -2.00018404463539   -0.70375050236667
O           2.23328669939556   -1.74541432420508    0.89526667874731
O          -0.03718643479242   -1.28061266480815    1.54246004342676
O           0.63848993467285   -3.58401881019927    1.11572167272744
H          -0.20997360158316   -3.79841974176867    0.73993847764871
H           0.92764396383660    0.02070267190983    1.60279567595192
O           1.47313845730886    0.83944936711838    1.50356070141385
H           2.33768493968412    0.58585843288559    1.83470331279300
O           1.70725548240875    0.24110466431882   -1.24926822242308
H           1.91973330201103    0.47832134672370   -0.33389621421514
H           1.36393493633039   -0.67311623954844   -1.18708565097719
O          -1.77665696615861   -0.68750531811698   -1.52984972045712
H          -1.01441520879318   -1.26003608121530   -1.30758308308889
H          -1.39669422441043    0.09725807768541   -1.94669907912206
O          -0.26487638260271    1.70051471640741   -2.05579666914400
H          -0.02098612087405    2.19029674465000   -2.84146401200497
H           0.52829438577832    1.12886957447109   -1.82187876495574
O          -2.20730011359909    0.07732494743852    0.94331875821038
H          -2.27917443075888   -0.23826067142696    0.00514896457811
H          -1.51395434612560   -0.50695551537656    1.32340514558040
N          -0.73234072034065    2.13477956461055    0.56182857559500
H          -1.44018618105966    1.30248814970606    0.77920243530412
H          -0.60865781354779    2.15796877950990   -0.47297302014520
H          -1.06834428781518    3.02070750339826    0.92104514847416
H           0.16775189128665    1.87231639056729    0.99488359854003
