    26
        -50.46441243  Gyration_radius:  2.45082816805 Dipole_moment: 5.487
 S           0.70801461225955   -1.54674636118876    0.84098655681983
O           1.38928202427712   -1.27147930265704   -0.40777962891573
O           1.20929872300708   -0.76641192916503    1.95162888699399
O          -0.74083150434896   -1.45251290397999    0.70677370889195
O           0.98438239647674   -3.06777158816846    1.19927235895659
H           1.88102032889906   -3.04948656516632    1.51694467747359
H          -0.78715951576001    0.12036732104381    1.17755801359755
O          -0.86725342661257    1.08687944919414    1.34193020851631
H          -0.53052296144774    1.20799550563214    2.23246435751344
O           0.48850440041037    0.64493318832604   -2.00686770362685
H           0.81649407543432   -0.15989130530920   -1.54835390419660
H           0.86893409674562    1.39595965176200   -1.47878096350988
O           3.06630097079784    0.65128598385489    0.68268885354230
H           3.05319456224595    0.07526069901647   -0.08917284599549
H           2.47148553420612    0.20316406685660    1.31462410644313
O           1.17224945444932    2.36512772307904   -0.14889594179154
H           0.47783965679466    2.07995835414166    0.46428835214927
H           1.99276094478248    1.93484658984531    0.17674782335728
O          -2.74968245838501   -1.56780193625565   -0.96910097450769
H          -1.95162314086901   -1.69539401332356   -0.40814809582200
H          -3.48493241220276   -1.90831260211709   -0.45677455101786
N          -1.92704145044025    0.96390373553478   -1.22250790830606
H          -0.91057394934524    0.80753542272541   -1.64991034470490
H          -2.45225428764437    1.64631453758459   -1.75727612119792
H          -2.39734651517461    0.02672391057012   -1.20700819411599
H          -1.78054015857140    1.27555236806877   -0.25533073654589
