    26
        -50.45802928  Gyration_radius:  2.37830084249 Dipole_moment: 9.886
 S           0.27388338946056   -1.88113693931306    0.33410547988675
O          -1.08053768381557   -1.50340344968653   -0.09265592073284
O           0.27655383800706   -2.77550035844116    1.44608259544653
O           0.97087284269334   -2.54834552781698   -0.88008798250281
O           1.03386856359275   -0.63449597121237    0.62385610268614
H           1.07443250178203    0.99047242090778    0.84727528745033
H           0.87821391012361   -1.92999010989157   -1.65660283375921
O           1.01150034727543    1.96074156855873    1.02488728760908
H           1.41275908422480    2.08709641698917    1.88672588933685
O           2.62018581984493    0.51469818141066   -1.21649327507835
H           2.21938546822280   -0.04165086558985   -0.52019000603148
H           2.48004929449368    1.42313929459404   -0.93759337550148
O          -0.87686524047884   -0.44051871820667    2.49080708339179
H          -1.25416379423824   -1.31631027584318    2.61298511208873
H          -0.08421968853499   -0.61994945300349    1.94871226973061
O           0.74007415199860   -0.69695444109456   -2.71749580046793
H          -0.02569787383906   -0.15418051766507   -2.48073347403828
H           1.52877898038163   -0.20536510714710   -2.41154650113699
O          -1.61609918879536    0.43846936928127   -1.56022178438954
H          -2.39245129850466    0.19267616121972   -2.06620779261594
H          -1.37130526091690   -0.39464904681910   -1.02121444833976
N          -1.59714765594650    1.52986877566505    0.87132913498587
H          -1.54101626643943    0.68056812568474    1.50285097107439
H          -0.63036830115279    1.94646684342785    0.92687026346298
H          -1.73201561087219    1.20021000708310   -0.12204456243989
H          -2.31867032856287    2.17804360690914    1.16660023988061
