    26
        -50.45269581  Gyration_radius:  2.44112029762 Dipole_moment: 3.988
 S          -0.81687010876728   -1.55360523167217    0.90872749273519
O          -1.41511527512489   -0.64597151508328   -0.05379157545336
O          -0.88494463468324   -2.93286990552805    0.56478862046580
O           0.64192917883935   -1.09861239338528    1.10732110118890
O          -1.44205167613898   -1.32985491593646    2.28500322242305
H          -1.47597112332770   -0.33976157444439    2.51642929266489
H           1.08669468749920   -1.01009907864149    0.13942745491871
O           1.56068355740362   -0.85499620181502   -1.18705300902281
H           0.98043739409095   -1.49570552967570   -1.66034430723183
O          -0.50806938942196   -2.27445946408766   -2.04470557483122
H          -1.09300940795476   -1.59293892684637   -1.68292464006880
H          -0.58547211137191   -2.99774522273448   -1.40838033494572
O          -0.53522091501583    1.82389861177588    0.43202264678219
H           0.41788045862153    1.73132784925537    0.63583275077034
H          -0.85536327477395    0.94404340886829    0.14560391543172
O           2.08662039454435    1.27058324573940    0.98296887689383
H           1.86780701773970    0.50712780491686    1.52968371689517
H           2.56546339894839    0.92468112120134    0.22496347085664
O          -1.58027420918297    1.17970659296019    2.74803915727493
H          -2.50380824492242    1.43820944302899    2.77668198652362
H          -1.19409569159823    1.59179381995673    1.92809445550738
N           0.71822600487308    1.44787511394781   -2.23073481726479
H           1.28750032200152    0.03824061830070   -1.55819746930388
H           0.10872855066845    1.20665888416835   -3.00207105699222
H           0.15720845168590    1.92022598251117   -1.52637378521850
H           1.41108663534661    2.10224744322213   -2.57101158104693
