    26
        -50.45992522  Gyration_radius:  2.43461791089 Dipole_moment: 6.634
 S          -1.42119646246611   -0.32612652911969    1.56385431698186
O          -1.76526804601436   -0.79261371975961    0.22043626238140
O          -1.34962967296819   -1.36736099171897    2.53490202933925
O          -0.17292522414532    0.46557378981986    1.48665696269827
O          -2.54686795329141    0.69427826380262    1.98510777489963
H          -2.56134498878184    1.36001729791323    1.29220266323429
H           0.67041094084833   -0.99584900950418    1.39034916055606
O           2.36637705769492    0.93852789218101    0.74176511215622
H           1.50974275088005    0.94334534528706    1.20264457587054
O           0.21492736891479   -2.56781601690113   -1.13220501947139
H          -0.68478543043428   -2.68450150399373   -0.80779617303575
H           0.73423045114659   -2.37680385920817   -0.32034790499512
O          -1.30654360115221    2.12250249735479   -0.19111792301228
H          -0.77585304570267    1.59525696278879    0.43770993837111
H          -0.69202679963507    2.74311126295790   -0.59042055477821
O           1.18814481240306   -1.81359974358864    1.25802116823935
H           2.65034432141885    0.01965810062192    0.77400607264224
H           0.84544464539530   -2.40987392418786    1.92922126025999
O           1.42996510659569    1.77975967574966   -1.58063181715644
H           1.81909465891572    1.53180437862208   -0.70293130914091
H           2.17136002389500    1.91229785390364   -2.17261661755581
N          -0.45574271545208   -0.13524803389272   -1.89726766049690
H          -0.00607477946999   -1.08797813292882   -1.85641037377055
H           0.24451548244230    0.63590842746450   -1.80736326952762
H          -1.02297155562529   -0.01415246101419   -2.72884806200262
H          -1.08332736210868   -0.17011783386543   -1.02892060275914
