    26
        -50.46666786  Gyration_radius:  2.4855994952 Dipole_moment: 3.139
 S           0.16530294221879   -2.16299656626404   -0.10590908344396
O          -0.50041527922345   -2.38510679361517   -1.38112513369123
O           1.43950308610362   -1.49861840161385   -0.20863057905108
O          -0.72464045367429   -1.49381961914617    0.84384970982334
O           0.44648716976613   -3.60416965706212    0.49244940578906
H          -0.35911119147929   -4.07147613184915    0.29497292815633
H           0.32553232314932   -0.52365892789140    1.64455638082635
O           0.97272238738526    0.09316198617158    2.05863220293066
H           1.81949599274702   -0.34392770960791    1.93987646082576
O           1.36914318948203    2.19328935326043    0.28057182936678
H           0.61771649789438    2.74760653051596    0.50553908432608
H           1.34227921909539    1.45485713376591    0.91627336277280
O          -0.93753040036491    2.13217467976212    2.06759005417723
H          -1.51812518907187    2.18966883026361    2.82760856460634
H          -0.27041250205568    1.45896240985749    2.27805304704392
O           1.70528791648382    0.61053892598495   -1.86080638610826
H           1.72037844441698    1.32577113089208   -1.19207480923068
H           1.83068067013863   -0.20915881724658   -1.34346234635008
O          -2.04731050710471    0.67357603504827    0.00713506735820
H          -1.72247708204842    1.34350108026735    0.63563002126962
H          -1.73220074199655   -0.17851829447677    0.37039367622109
N          -0.80541694503556    0.06798629817667   -2.24246723525332
H          -1.24122089274793    0.25394518723014   -3.13868765441349
H          -0.75775172381504   -0.96847249224535   -2.04182253346835
H           0.21679784529865    0.40703481556012   -2.20544798040650
H          -1.35471477533430    0.48784902433430   -1.44269805419276
