    26
        -50.45783486  Gyration_radius:  2.52299817451 Dipole_moment: 5.180
 S          -0.52475526796058   -2.44891586734978    0.19591643041228
O          -1.64190495666887   -2.00171625305486   -0.61102804238631
O          -0.34714795920551   -3.85518480890274    0.34660769020444
O           0.80211473214027   -1.97406763342672   -0.64056681568354
O          -0.43970515714198   -1.67558015763728    1.43805120885571
H           0.62939335211112   -0.52673165650833    1.73384865782718
H           1.27032554713021   -2.80020565991380   -0.58532626115945
O           1.16130969638654    0.29882044737268    1.88267527293645
H           1.15661210360094    0.44367079187880    2.82989500246491
O           2.17724973030032    0.50957216220230   -0.68311413422769
H           1.73721455673256   -0.33644631179445   -0.84252871768757
H           2.26034658615880    0.55465864400470    0.27783263985677
O          -2.55074288189880   -0.07962313826049    1.21933355939749
H          -2.99159476212275   -0.51088919012681    0.48011048959548
H          -1.83836204251650   -0.71184657732466    1.45636487407950
O           1.13017240477898    3.06751220884340   -0.98582848202304
H           1.65671500500956    3.63417389698770   -1.54941367694633
H           1.56524872435625    2.19547862864413   -0.99546092735228
O          -0.76123902612197    0.01081851725600   -1.99218365662242
H          -1.15665868395632   -0.78268410847333   -1.55351043238577
H           0.04050483638167   -0.29103836248016   -2.42257946118058
N          -0.67393543354772    1.48368143363668    0.21054852156905
H          -0.62327892285966    2.48719418709468    0.04381863652519
H          -0.59725801638115    0.98896257950397   -0.72306005372977
H           0.11935975770392    1.19219897933343    0.81610725484824
H          -1.55998392243378    1.12818724851512    0.65349043282408
