    26
        -50.46863001  Gyration_radius:  2.50061201544 Dipole_moment: 2.827
 S          -0.06947755496903   -1.65295520090338    1.41275428223348
O          -0.11089575594490   -0.47694828356579    2.26600476841417
O          -1.37686297311343   -2.08848483132101    0.97961826986950
O           0.87120565353044   -1.51506737856622    0.30414774946961
O           0.53356117159764   -2.82448828631058    2.30047664541512
H          -0.14855091959576   -2.98307758467811    2.94546065922881
H           2.18454040320413   -0.32713041077303    0.89134478094517
O           2.23984380915673    0.44477651270612    1.47567209970404
H           1.46789050270534    0.30579631631270    2.05556192849165
O           1.36202789422336    2.41109686850914   -0.01110548370635
H           1.86034704666293    3.20110349262760    0.20091071171710
H           1.75818790357143    1.67791928447749    0.53958787190635
O          -1.16939854926367    1.25356393679774    0.49425346877502
H          -0.39904162539160    1.81629367036916    0.33448644650147
H          -0.90746724232968    0.67094419922101    1.22855328243079
O           0.40224035321438    1.70549486441010   -2.41970531098764
H          -0.41642502681009    2.20680750619700   -2.41839873959446
H           0.86923643411037    1.96430444645077   -1.59716428703255
O          -2.62500619502389   -0.59506458337768   -0.82164940278653
H          -2.40186443040688    0.24986357061660   -0.39030506870926
H          -2.40447108471389   -1.26050374530330   -0.13655448341333
N          -0.29480536370258   -0.84706962676220   -1.95565643066403
H          -1.32267344248959   -0.77743225997720   -1.63901451247386
H           0.03997596870592    0.11369287895754   -2.21906743307748
H           0.23378955700448   -1.17056651353319   -1.10089135974339
H          -0.17590655391721   -1.50286883264370   -2.71932045284485
