    26
        -50.47144239  Gyration_radius:  2.41500949214 Dipole_moment: 3.973
 S          -0.87682546851260   -0.01702094418186   -0.39569673727685
O          -1.09463774311005    0.12399110576171   -1.80978315950987
O          -1.05771107965026   -1.38469035579211    0.09439143294294
O           0.44768644638626    0.48927886469622    0.01072712550793
O          -1.91260437593668    0.84389615215912    0.39073788627959
O           0.67882724208886   -2.16157339838653   -1.81615972770979
H          -0.06214454606996   -2.08370369772510   -1.19406828109791
H           0.46193185203204   -1.54175184991806   -2.51742777154676
O           2.41656973290772   -1.35755237954434    0.11179661990566
H           2.06779875735939   -1.84621220707163   -0.65867416989721
H           1.97174851910855   -0.49344692871937    0.04453146441122
O           0.04732403809602    0.58253049050634    2.62940052984683
H           0.27253515602418    0.72922354599624    1.68737270415115
H          -0.88105519844339    0.81753703975563    2.69872460129529
O           0.45098073199808    2.90599050056326   -1.13854382416253
H           0.52881178853273    2.04585855393618   -0.68195311179147
H           1.01870034895719    2.85249425219189   -1.90945811140234
O          -2.20008713362127    2.55118760545771   -1.49002766005260
H          -1.32809190319911    2.98356912393818   -1.38913711644636
H          -2.02943932418931    1.78857340552856   -2.06451230842259
H          -2.16577358531963    1.59559284317705   -0.22871338363214
N           0.65916412282376   -1.91910388572735    1.96314107202236
H           0.54671596495982   -1.05134439261834    2.53531514832783
H           0.64665455587002   -2.76901412187807    2.51523632410106
H          -0.13927982341502   -1.86408634749074    1.26213800120771
H           1.53220093432027   -1.82022297461878    1.35064245294637
