    26
        -50.46060891  Gyration_radius:  2.58713911404 Dipole_moment: 5.773
 S          -0.59648630353735    0.16095761505733   -0.32213977965820
O          -1.86038896718624    0.31064224584801    0.36471923174822
O           0.27992604055307   -0.83256121452966    0.28735873149126
O          -0.76664891431758   -0.16521399913140   -1.75224085015788
O           0.15629896709671    1.52241720194003   -0.29721375078537
O          -0.45972336716671    1.78763717128099    3.62129874018142
H          -0.58475311514971    0.84203136985747    3.36878093892914
H          -0.95545437605900    1.91580839692591    4.43136921386523
O           1.70801021945383    0.65670355559088   -2.44414617972607
H           0.75905088930500    0.47617607970512   -2.30732894179128
H           1.87316387062424    1.46422035340239   -1.95128098992314
O          -0.98020080449718   -0.65554717241486    2.67959802142732
H          -1.57276323089415   -0.36557688196675    1.96244269995981
H          -0.21282511349363   -0.97811050265515    2.18906501688219
O          -1.36786878473445    2.77223065476246    1.30003128974812
H          -0.99400651459130    2.56925220016092    2.18860515003903
H          -0.36646128577738    2.13632498672325    0.31501891703592
H          -1.99234855951809    2.05544794589988    1.10836792094456
O           2.35058194350225   -1.57761910309320   -1.13371855126548
H           2.43601203510390   -0.75223061060938   -1.66006394912878
H           1.75844234662166   -1.31486298526071   -0.39147169533776
H           1.25251604600779   -2.23016503525189   -1.88308064051078
N           0.26587396141547   -2.44472582309484   -2.33624703675703
H          -0.27542977251243   -1.52828330220191   -2.12749686066674
H          -0.18508836105309   -3.22656610973935   -1.87283158548487
H           0.33057115080627   -2.59838702720243   -3.33739505105782
