    26
        -50.44133992  Gyration_radius:  2.58147444374 Dipole_moment: 5.593
 S          -1.81687555261010    1.71743471219299   -0.01343217176503
O          -1.25948219294059    0.42655236310011    0.33282425961177
O          -3.09403222777257    2.01903935101143    0.50959521587527
O          -0.77229120702059    2.79170829210745    0.39635483943790
O          -1.84910655300349    1.82655965984494   -1.55683000847337
H          -0.89962849421209    1.78353798940508   -1.85218317253933
H           0.07648007647544    2.35454913858092    0.71474347212825
O           1.83238294670285   -0.32580900368488   -0.77082616804103
H           2.58837325889150   -0.70921153885658   -1.21707452198907
O           0.41864346971337   -0.86104424627579    1.99144616001571
H          -0.30060272985469   -0.44575249086466    1.47781969158984
H           1.09030211528894   -1.09811897460113    1.34367767232611
O          -0.56480358373815   -3.39727474346484    1.45447928642125
H          -0.25258702901145   -2.58149343860513    1.88555452924523
H          -1.37352624521926   -3.64693481047079    1.90302510400019
O           0.70370729915576    1.79463046835756   -2.00359570235460
H           1.13129823650948    1.00430470249039   -1.60593672551506
H           1.02988425465847    2.56076042087653   -1.52444753963917
O           1.39494197625264    1.61356129928014    1.15202410483113
H           1.12926747721697    1.06365321664989    1.90366813626719
H           1.66297268685759    0.97667122361128    0.46509384095315
N          -0.22714307573920   -1.86690482743367   -1.03568662297929
H          -0.50675467799551   -2.21104492818658   -1.94478627345696
H          -0.90884767800218   -1.17348489648706   -0.73325647429747
H          -0.27887182860768   -2.63798794061040   -0.37173979607809
H           1.04629926821575   -0.97790101778572   -0.90051113590985
