    26
        -50.45411415  Gyration_radius:  2.60312221447 Dipole_moment: 4.185
 S           1.41681308350749   -2.14222783835282    0.81274327138530
O           1.25221516697995   -2.56935790003297   -0.57201479842742
O           2.04638254039925   -3.08109230330621    1.68281868550215
O           2.44930854109436   -0.88201617226936    0.72874713152671
O           0.18705653284002   -1.53350877640575    1.30628143391299
H           0.15413995600508   -0.02774622764759    1.76425787980493
H           3.27442477029911   -1.35027019228910    0.79805587972640
O          -0.09310376811435    0.91557459830466    1.97891599804343
H           0.05430484809263    1.02117196073301    2.91964781091786
O           1.63442980961381    1.70831746394457   -0.01992371338543
H           2.14751245272218    0.89750863014859    0.08960859271163
H           0.98159333931319    1.67449457957180    0.69842186441345
O          -2.18085844678410    2.14382462581981   -1.07239483242037
H          -2.43836756125476    1.37086087547519   -0.55339064659202
H          -2.11839548552618    2.87794821384020   -0.45902466334173
O           0.18516809441258    1.34458317480606   -2.23170962061671
H           0.81773669652254    1.59100167223646   -1.51854617181522
H          -0.64186009326130    1.81214527725903   -2.01975771511379
O          -2.22419653523743   -0.12336315191662    0.64188243422513
H          -2.34004476637153   -0.94306077689981    1.12886396319601
H          -1.54988680226772    0.37108672382385    1.15034727212301
N          -0.61175448515568   -1.02315710925607   -1.45861307533560
H          -1.15400134375336   -1.50207006002064   -2.17035651569547
H          -0.21201486632837   -0.10781664486547   -1.85822306466690
H          -1.21430379877858   -0.77658084561693   -0.64984829639573
H           0.17770215084355   -1.66624979732591   -1.11678911386942
