    26
        -50.45616984  Gyration_radius:  2.68747089107 Dipole_moment: 6.497
 S           1.24544879155519   -1.81682196229744    1.49141427590776
O           1.58048905674089   -0.40328013924507    1.47926033718701
O           2.32998737210465   -2.71344318807500    1.73574991872202
O           0.25173406328478   -1.99398748080478    2.76556878842007
O           0.40223481251504   -2.14910302892167    0.33804997721892
H          -0.59471640000280   -1.03401456831526    0.82388059549006
H           0.70874282614121   -2.67676673136663    3.24531216102527
O          -1.18980158659254   -0.28319323529214    1.08883193147044
H          -1.22464050141759   -0.34616111495606    2.04542991904300
O           2.90094836647117    1.55287373037770    0.32880111594289
H           3.30275300878348    2.07776201799707    1.02237468747644
H           2.59276784420054    0.72661501578529    0.76321029881435
O          -2.55174812622897   -0.09831421210806   -1.24268360713448
H          -3.43300147253837   -0.46689564622253   -1.16950712913229
H          -2.14602595223035   -0.17367806138849   -0.35528531377353
O           0.14341744745845   -0.90121501114242   -1.99448158340239
H          -0.82023899271104   -0.90228142782294   -2.05852126621579
H           0.35337717950244   -1.50061044980977   -1.24679470032201
O          -1.75341521494458    2.46746901459219   -1.81767271759914
H          -2.17530536881102    1.59946074701393   -1.66898273507148
H          -1.75613824306892    2.61350205196618   -2.76474350578480
N           0.37279811643676    1.31903271247236   -0.56304221247632
H          -0.04127055535243    0.91931816196802    0.29699054866508
H          -0.26114769633385    2.03039130210399   -0.96448558898729
H           1.33220933146909    1.65163645994873   -0.34184229453526
H           0.43054188357270    0.50170503352485   -1.23683190095662
