    26
        -50.46117092  Gyration_radius:  2.45535271446 Dipole_moment: 7.583
 S           0.72108548654749   -2.15342547313487   -0.14294995461091
O           1.15402068407944   -1.84275115517513   -1.48871926406788
O           0.56120010305339   -3.53225786286776    0.17861838445357
O           1.93168197612540   -1.64961574904747    0.82987220524494
O          -0.39483130853701   -1.28798308714937    0.25667410112426
H          -0.00638856897647   -0.37186682781889    1.53956941017336
H           2.27974765057107   -2.50521314243925    1.05646483409909
O           0.24614243337142    0.29682905491517    2.22340140722340
H           1.08787735990168   -0.00992422885573    2.56534323024908
O          -1.09486305988030   -0.29627014740413   -2.17755880249447
H          -0.87352255909185   -0.73130580618323   -1.33673250734920
H          -0.42853548256720   -0.60621069827567   -2.79455869680930
O          -2.63077539759693    0.09787396982965    1.12303744746868
H          -2.25693280304096    0.31814329450494    1.97969417534342
H          -2.05094762717499   -0.58591370535984    0.75602801118928
O           2.11539997462810    0.51370279275470   -1.05698786318464
H           1.72265258807974   -0.35249448158691   -1.33461763422179
H           2.80247159425187    0.27130571591206   -0.43243759364796
O          -2.05182084367086    1.82814908877095   -0.86385682724130
H          -1.86196994333957    1.17598611134471   -1.56575981774092
H          -2.49385737154560    1.30316191197654   -0.16333159395789
N           0.31411725255395    2.04795466030433    0.17469965122082
H           0.99506285308686    1.50661119122243   -0.42191349415647
H           0.62378029286701    3.00572603435697    0.29574307059412
H          -0.67260849218790    2.01810091978125   -0.28735469406769
H           0.26181318849441    1.54168760961790    1.08763279514514
