    26
        -50.44055176  Gyration_radius:  2.55563018455 Dipole_moment: 6.200
 S           1.12966931038189   -2.08525069872848    0.55444894614263
O           0.71791283630411   -1.70731544058086   -0.77166869668982
O           1.92775756989976   -3.24482302430624    0.68788138190193
O           1.87852960960218   -0.86011872348718    1.18909008899541
O          -0.14210701736013   -2.19562187514411    1.43392435592238
H          -0.17443487716234   -1.47107481305411    2.13038728784882
H           1.77035068936387   -0.04642906562446    0.62584878888310
O          -0.79488498480698    1.54151883617378    1.17506289359083
H          -1.39524884713888    2.28719925009639    1.14878812120878
O           1.53901774139636    1.43795575276806    0.00549302135683
H           2.13471642401101    2.08523749418271    0.38717095816359
H           0.63915448781305    1.59360354954189    0.39966573346549
O          -0.10588538812264   -0.21321759510382    3.07436118181641
H          -0.42080645382206    0.51126901568481    2.48983216837687
H           0.84359849589191   -0.09968989162356    3.17176561203740
O           0.93895912239081    0.37471737664925   -2.56040352828212
H           1.27166826755463    0.94493414586864   -1.85688307097549
H           0.88202586592991   -0.50192243346923   -2.15062996212558
O          -1.65833697592458    1.02535681152683   -2.90330325053151
H          -1.91971174196164    0.77055658476568   -3.78890176718348
H          -0.69061302790223    0.85676419946154   -2.85217362259661
N          -1.72143156779085   -0.26376356619427   -0.35034226563302
H          -2.51772673022531   -0.79761465884329   -0.02959207062062
H          -0.95230486357230   -0.91089011974360   -0.51821086155780
H          -1.95046962430512    0.17483913677710   -1.24402998517903
H          -1.22939834044958    0.79377975240640    0.55241851167153
