    26
        -50.45729501  Gyration_radius:  2.49992042557 Dipole_moment: 2.574
 S          -1.10180875668715    2.00472579975195    0.38694278447529
O          -1.59523881719301    1.11373428347531   -0.67149099446067
O          -1.94833700369638    3.11491857897612    0.67878492648849
O          -1.12715325955720    1.08678510784289    1.71937997732612
O           0.30496674822209    2.28503702036277    0.16017051454007
H           1.21235702818234    1.51691634523667    1.18347284468577
H          -1.95882755158072    1.35894214012318    2.09163372975367
O           1.79926403161947    0.97706050597518    1.77854493027713
H           2.22453003861062    1.60039825053699    2.36829205915059
O           0.44639763723244   -1.44915333796079    1.79208227390074
H           0.75247951059746   -0.53099214247290    1.90066926931443
H           0.03143075550113   -1.69179115829359    2.62069251453254
O          -0.83834249916252   -2.10074137324572   -2.47214738418565
H          -1.16706193228314   -2.03935969476409   -1.53486988721105
H          -1.62347150183675   -2.10891233125132   -3.02131317374721
O          -1.63515463909106   -1.49979940088118   -0.04072387418835
H          -0.91132505019436   -1.55111081467346    0.60813334669852
H          -1.76984793151862   -0.54687455166148   -0.20448288602081
O           2.32253926018182   -0.73081634372192   -0.25104261419445
H           1.88994903205243   -1.48194184035051    0.17091026348820
H           2.38414458795590   -0.05719480922322    0.45153937570942
N           0.47398047474736    0.15805904321260   -1.95909395192395
H           0.04800339519248   -0.72146438686713   -2.35373078231755
H           0.84057133892715    0.76624814436263   -2.68267690043547
H          -0.30064137245907    0.65290253200345   -1.42700438183280
H           1.24659650623738   -0.12557554648670   -1.29267198983218
