    26
        -50.47017082  Gyration_radius:  2.413612014 Dipole_moment: 3.312
 S           0.12774900035414    0.12880776559831    1.58962694787081
O           0.35901932978797    1.21857704453804    0.45949278022626
O           1.41878089109883   -0.42052994310853    1.92019925715661
O          -0.56564299237987    0.82988077754687    2.63765578430445
O          -0.73969934891454   -0.88576850219878    0.94819138471490
O           0.35850865910676   -1.90749388850492   -1.20566042123827
H           1.04226542266117   -2.51037989903734   -0.87912771153106
H          -0.11114851184817   -1.62216002075857   -0.38608445677488
O           2.49183158269228   -2.32207279073193    0.44447919826592
H           2.09513667392428   -1.64245735721757    1.03761941599121
H           2.92737314332893   -2.94596984395380    1.02563676146523
O          -1.88295681035222    2.65182146647355    1.33610819266001
H          -1.44864678949066    2.01724308034677    1.96301547221711
H          -1.17381580863679    3.23228142063681    1.05034392133665
O          -0.67818387770534    0.38512980024659   -2.46481027036225
H           0.13554094733090    0.88758104239805   -2.36246351592680
H          -0.43359216392495   -0.53869085020212   -2.29982987042683
O           2.08551973515626    0.12864003121318   -1.14041967192224
H           1.54417011398491   -0.67986831378752   -1.30474020440199
H           1.08121920738498    0.87025524075888   -0.12717221103970
H           2.82375113392765   -0.17999052739753   -0.60705672034655
N          -2.32399094866345    0.66839051626217   -0.34518972237310
H          -3.29420370398461    0.41106504754636   -0.49208193449924
H          -1.80258038300827   -0.06265468242499    0.23911311028640
H          -1.79829234739970    0.72002849379003   -1.24972729244706
H          -2.23811214442891    1.56833489196602    0.21288178679383
