    26
        -50.46598346  Gyration_radius:  2.49065336804 Dipole_moment: 3.324
 S          -1.46228796330849   -1.55229787127826    1.12683272615286
O          -0.42048564898490   -2.33733588681966    0.47667562377551
O          -2.77548724014378   -2.10771557095851    1.08317207223589
O          -1.05226054456157   -1.51052983330274    2.68259036349599
O          -1.37024471529495   -0.15561151439938    0.68494948940493
H           0.24648907893456   -0.30568706654892    1.25077272705874
H          -1.80679667944757   -1.91939651730137    3.09361276563806
O           1.16925631953714   -0.19914864081917    1.54888058875384
H           1.35264320638094   -0.98668422060715    2.06365826634840
O           2.32504193244185    0.32051557419930   -0.84793752420890
H           1.87769651181120    1.15499289552440   -1.07193926406861
H           2.10190271650174    0.16029181730333    0.09073774866988
O          -0.28079872226874    2.26233127134425    1.27676033736970
H           0.44609143942353    1.86881743004321    1.77227159236137
H          -0.90288441402978    1.52703398319994    1.13809006888978
O           0.59464730516543    2.44968370276655   -1.20429799504342
H           0.66409009959102    3.36506223338399   -1.47665671293417
H           0.26746137286908    2.45850761976482   -0.26531268226236
O          -1.27667824961826    0.54488131503828   -1.91365123536409
H          -1.55438219022018    0.33905440872869   -1.00059780026371
H          -0.69552223633045    1.32244170051280   -1.82747759612721
N           0.52209251087852   -1.36329896566830   -1.76403719141230
H           1.37440355676673   -0.78440658467006   -1.49460758135182
H          -0.23841590178516   -0.66983281789095   -2.03102709829757
H           0.72052975532985   -2.02918451527488   -2.50127240721431
H           0.17389868035270   -1.85248394622518   -0.89018928165885
