    26
        -50.44592109  Gyration_radius:  2.58181456237 Dipole_moment: 6.946
 S          -1.02196854570796   -2.12963865386641   -1.15960070255841
O          -1.13767707429917   -2.22839820327845    0.27942590032508
O          -1.91459966798012   -2.91365919065425   -1.92645506802333
O          -1.13633819357569   -0.61229093380145   -1.52091904069271
O           0.42540589144826   -2.43946181987948   -1.58461078031945
H           1.07390614765560   -1.83539043490312   -1.10289688447232
H          -1.77072798862320   -0.21974811401322   -0.83360264753364
O           2.10023074251425   -0.82859824518276   -0.48246819251479
H           2.96880364543247   -1.01811112710373   -0.84092620854117
O           0.63302602858606   -0.98707335984842    1.85061033039148
H           1.34503941957802   -0.88224779155808    1.20266414803344
H          -0.01824809454996   -1.56597180611065    1.40740518478675
O          -0.76892894222926    1.18904934092117    2.11698628781274
H          -1.02836391111945    1.26100074982737    3.03674157853912
H          -0.17833056414064    0.38323786931034    2.05426738642559
O           0.56114635418622    3.06991649576673    0.59931142446399
H           1.15164033528917    3.50256197016483    1.21736745917540
H           0.01039289095453    2.46128135641716    1.12247242257233
O          -2.58252270150575    0.04791301419323    0.45512942494244
H          -2.45813821638565   -0.86213569465488    0.76144993601454
H          -2.01593395260399    0.60354376632892    1.03251931700022
N           1.15201586703947    1.28831190061814   -1.59183928177969
H           1.60563822032236    1.71820161889401   -2.38725547743134
H           0.97683420631208    2.01266834306647   -0.89460674574790
H           0.25145937697211    0.92925179809824   -1.89253896043928
H           1.77623870558041    0.05578715181121   -0.91863081889274
