    26
        -50.47144241  Gyration_radius:  2.41506604224 Dipole_moment: 3.967
 S           0.16970375488652   -0.67130036265102   -0.66752336157098
O           0.12776639407580   -0.01058209501449    0.65061956337376
O          -0.42928706777265    0.20059551359982   -1.67969594933337
O           1.49433067353032   -1.11962237912639   -1.00131257789958
O          -0.79265121301391   -1.89318295577704   -0.55321502601421
O           1.79666346594941    1.71226640704364   -1.50834876934709
H           1.01887287512098    1.21405791761278   -1.80653643966969
H           2.45895574432567    1.03595526114876   -1.34399207687932
O           0.39838808800941    2.67717619555452    0.61232937065364
H           1.03097317467288    2.65396303746443   -0.13154834607936
H           0.40685950979556    1.75887569007942    0.93744508715310
O          -2.49868930020388    0.00112290577360    1.00621842109072
H          -2.77861831529530   -0.81631029429215    0.58745056345738
H          -1.52304711423168   -0.06792738941027    1.06222336026649
O           1.38115587494987   -1.82070912237653    2.17177133215454
H           0.90834177027228   -1.11331343020893    1.69172265437759
H           2.26201412467585   -1.48407733678293    2.34551216181710
O           1.05884262138588   -3.52717662364190    0.10732749531277
H           1.19802631977064   -3.18384280048028    1.01301501920076
H          -0.21017866491724   -2.67453589416035   -0.30191788815586
H           1.61179400718345   -2.96279341776553   -0.45524421296809
N          -1.85429888565943    2.05412371231622   -0.55786135170679
H          -2.44295923547729    2.70113782610240   -1.06987551341463
H          -1.36596744344337    1.34700012200873   -1.18524188100720
H          -1.04354943359744    2.52899234701043   -0.04390268335811
H          -2.38344173499052    1.46010717597859    0.12058106854605
