    26
        -50.46750208  Gyration_radius:  2.44497533692 Dipole_moment: 2.692
 S           0.25773168722488   -1.53346839259732    1.64478425795321
O          -1.13739521545020   -1.13839748218058    1.67442991590664
O           0.84530873373208   -1.80359509954556    2.91555060731492
O           0.32594775056791   -2.90693749679045    0.81108025608113
O           1.02856978397965   -0.59623079300934    0.80743297544626
H           0.29630765071235    0.76402853511273    1.46539079682350
H           0.41620800168639   -3.53810118263662    1.51650265129724
O          -0.28362757826479    1.49776002030557    1.75630190760911
H          -0.93471995891839    1.05989256270047    2.31322811507829
O           0.32889947609160   -1.35130062153313   -1.60538107451653
H           0.56172162988756   -2.27663104458134   -1.69660849836787
H           0.62926214443646   -1.09727401973283   -0.70260718818198
O           2.49354290125673    1.46056802132127   -0.19459918880911
H           2.16344042013750    0.63254155989852    0.19086747376060
H           2.37845469011655    2.12904185530409    0.48372194302841
O           0.74000700411770    1.33946944030341   -2.23898083656568
H           1.49178996339162    1.48595158720171   -1.62616544063357
H           0.67742169646193    0.37637385829604   -2.32961146657384
O          -2.18416075371246   -0.77190762931113   -0.70403524053645
H          -1.93431931575916   -0.98579772070934    0.22515328022678
H          -1.45391694604752   -1.13303894530748   -1.23818026823250
N          -1.35828272743743    1.70778536313873   -0.69757239800827
H          -0.97995693028236    1.80120928101648    0.27718918615376
H          -1.83793953346748    0.74795793481908   -0.74459007289813
H          -1.99643955686754    2.46078413567465   -0.92621919279766
H          -0.53385501758224    1.66931627283143   -1.37708247055354
