    26
        -50.46925793  Gyration_radius:  2.40283930481 Dipole_moment: 2.808
 S           1.01190567579819   -1.25564997629395    0.92999832958150
O           0.95517268953119   -0.95517603706188   -0.52058190499199
O           2.29620738743144   -0.96013857741851    1.48591868276163
O          -0.07114528191270   -0.52614033480722    1.60121199405048
O           0.71010851383988   -2.77719085577510    1.09042762459530
H          -0.13186198623114   -2.92043899691923    0.61649449869749
H           0.73242323685747    0.85756100006833    2.34410687150944
O           1.48060185939660    1.48537256347898    2.34872593645090
H           2.24414130145049    0.89449284482553    2.40564440754506
O          -2.30860838358431    0.10905564666321    0.46499593733385
H          -1.46417382595136   -0.11908827516467    0.93230895395182
H          -2.93611739262194    0.34424770704212    1.14984430677706
O          -1.33594900936914   -2.33420464066798   -0.59258521118817
H          -0.54319552599424   -1.81407463864232   -0.80318160726642
H          -1.98979591588783   -1.68735657428129   -0.29241767275426
O          -1.17650663727537    1.94154010958321   -1.19687873158814
H          -1.00646791403321    1.36942255248460   -1.97044881243698
H          -1.70967987992559    1.38513401384151   -0.59426903134653
O          -0.31400495962551   -0.06962141750694   -2.80706094594956
H          -0.89703347380193   -0.78329997807993   -3.07455817094145
H           0.26704153898120   -0.43737926556846   -2.12250967070685
N           1.25732378797947    1.67590905287443   -0.28466374436991
H           1.96789353548016    2.17665083990205   -0.80805564381269
H           1.37517093096075    1.80667633453220    0.76079312870862
H           0.26647665448620    1.95086729980251   -0.60797032650727
H           1.32007308413746    0.64282959318712   -0.45528917817431
