    26
        -50.46829126  Gyration_radius:  2.47620304635 Dipole_moment: 1.524
 S           0.87173116412077   -0.92949290072604    1.69192743445366
O           1.96967215940921   -0.37565969961240    0.91194318380740
O           0.64596470053588   -2.33853490794675    1.46067766475361
O           1.28560001370573   -0.81325527246797    3.22056151241085
O          -0.33465782721933   -0.13017066329570    1.52952883845571
H          -1.12975826719980    1.28332423892279    1.00860163453306
H           1.36654453317887   -1.73434241535313    3.44373933992178
O          -1.65739060455988    2.01323613987836    0.62465163058119
H          -1.37948411826627    2.80335122315234    1.09057731352464
O          -0.36700454679324    1.85287313096146   -1.73948669052004
H          -0.98696598001440    2.03448919876436   -1.00298754578945
H           0.51117358953804    1.96285762125462   -1.31853065611648
O           1.28587127882669   -2.00117634711547   -1.06173003949216
H           0.95676880440406   -2.48589886646473   -0.28063844799967
H           1.83319652740624   -1.31869361813354   -0.63702464278386
O           1.81100512470767    2.00691263248272   -0.18740090132676
H           1.82751180439058    1.14897486676793    0.29350215576822
H           2.72168719201504    2.19269533402813   -0.42003322213978
O          -2.44867498555288   -0.86533829526949    0.13926465237936
H          -1.69512687364104   -0.79370838417317    0.76593855041548
H          -2.91613491292862   -0.02907154302924    0.23130352642897
N          -0.84048613275515   -0.70685356946327   -1.97749221268292
H          -1.56830931356019   -0.85696457111709   -1.22723527616090
H          -1.17846735079802   -1.00993566011678   -2.88384085962280
H          -0.60859999905503    0.34292058940714   -1.97894951330465
H           0.02433402998085   -1.25253829124352   -1.69686741953729
