    26
        -50.47078946  Gyration_radius:  2.50470839941 Dipole_moment: 4.958
 S          -0.69775044267370    0.71758393528149   -0.08963024444092
O           0.70312282555048    0.41904597750018   -0.44076395834040
O          -1.53560269544542   -0.43158388868182   -0.39373378543278
O          -0.80246815743774    1.15331741028130    1.29058592584716
O          -1.16133278704871    1.86996403304231   -1.01213598097515
H          -0.86279922277202    2.69889107926083   -0.53217609234316
H          -0.07200250809022   -0.02390449228556    2.20635482151220
O           0.27729636213056   -0.78710558769127    2.71763726717068
H           0.02581268619007   -0.62858105268307    3.62937390400148
O          -0.21204317748470    3.66815427559452    0.54538659275443
H          -0.44106626887725    3.03152251370978    1.23939324959351
H           0.74317664154970    3.52776901890560    0.37502287042106
O           2.15950142407339    2.62066843525188   -0.15849304817323
H           2.48168586345224    2.81191813338865   -1.04097888740323
H           1.70318839254947    1.75448981748748   -0.21580581090645
O          -0.77778127078042   -2.58040891907294    1.05147035119292
H          -1.32944672436101   -1.90351021006563    0.61570774834784
H          -0.37760707974569   -2.10308883712817    1.80959666162370
O          -1.06305157962531   -1.78163816784345   -2.61436300392235
H          -1.32459769604686   -1.16663050183639   -1.89124306971444
H          -1.83889083221272   -2.31382898158761   -2.79887181596770
N           0.91930452907529   -2.14004386193323   -0.86892107592362
H           0.98193642325852   -1.09223411702348   -0.69815290904631
H           0.32996105502069   -2.23645937221623   -1.72345755639886
H           1.83103650814379   -2.57298392343370   -0.95833708614648
H           0.34041776253182   -2.51132274625934   -0.04346507776655
