    26
        -50.47064468  Gyration_radius:  2.48594328235 Dipole_moment: 4.188
 S          -0.97422534662497   -0.62012733853859   -0.47041072316400
O          -0.22739144951559   -0.69956960745322   -1.71864771871585
O          -0.20080655931227   -1.22082055264568    0.61972985189383
O          -1.33926920980880    0.75757851308126   -0.14735186316031
O          -2.26961403308177   -1.43942674953342   -0.65409274333941
O           2.15906142417009   -0.10472141395549    1.04012780673271
H           1.87683238236543    0.82298428038913    0.96773898756766
H           1.31559130633350   -0.60753577430421    1.07264641157380
O           0.80572196669940    2.14926911865491    0.22946185644345
H           0.55158618451231    2.96245526020769    0.66902369638720
H          -0.03483800086517    1.63225303299632    0.10484507333115
O          -1.61602763336641   -1.16791082781125    2.84797556278869
H          -1.64367524390844   -2.06384669259542    3.18735217748719
H          -1.01912405089103   -1.18999642459062    2.06744268758097
O           1.43792951346839    1.67103022442252   -2.39261460382093
H           1.29475622130406    2.06050039094294   -1.51047672949815
H           0.62647017364483    1.18321336360924   -2.58082204527761
O          -3.47395125379711   -0.14907182448038    1.20469579866442
H          -2.98758185511129   -0.48558332085113    1.98652705186645
H          -2.93740789559195    0.58735150261510    0.87441453331438
H          -2.88622392919500   -1.05453757131871    0.03491143042582
N           2.35388554519311   -0.63148536650663   -1.49992703607199
H           2.48737532358310   -0.47831963490933   -0.44707925592710
H           2.36650722326718    0.30378652927761   -1.97599525905423
H           2.99856597483334   -1.30200808389419   -1.90108963771117
H           1.33585325169327   -0.91546103280528   -1.60838530031961
