    26
        -50.46923822  Gyration_radius:  2.48015913623 Dipole_moment: 2.932
 S           1.20496222223378   -1.70013089337967    0.88757704291194
O           2.02006710944086   -2.03181372600209   -0.25360650454152
O           1.75668401354790   -0.63271902011296    1.70790572628043
O          -0.19362091986072   -1.45070753358740    0.55371427290127
O           1.17628982818247   -2.99857058849816    1.80548863578008
H           2.09628285260631   -3.24026586562987    1.80759490175032
H          -0.61276549151423   -1.34570547100489   -0.99979664716855
O          -0.93882606765277   -1.18737109397247   -1.92276176182282
H          -1.32754578468825   -2.01427135229382   -2.21092167685739
O           0.43054917226632    2.33445652356262   -0.76830169874037
H          -0.47913588572904    2.10266596606140   -1.02035212753212
H           0.98790138856615    1.62421984048386   -1.16135730362592
O          -1.98754511768782    0.36744505709771    1.38633334088829
H          -1.47849597163868   -0.44280249175161    1.18928773106569
H          -2.23239744108409    0.72311341409476    0.51774079906037
O           1.55990149767344    0.12777767091987   -1.74786255206368
H           1.90844495067708   -0.60093745150493   -1.20110086981909
H           0.80624257684889   -0.26030164541996   -2.20942755279876
O          -2.05384748130865    1.17841761321096   -1.30290360401552
H          -1.68037242792655    0.31781372211164   -1.59512988169145
H          -2.67572649752926    1.45500663626095   -1.97691247572423
N           0.34817213322900    1.55940548812060    1.72910693178382
H          -0.64653830472854    1.20705432136013    1.78094138425770
H           0.97306165078783    0.70226367451431    1.77255046570061
H           0.46816450348881    1.99533459208149    0.75949230894805
H           0.57009349180191    2.21062262328208    2.47270109507398
