    26
        -50.46434358  Gyration_radius:  2.50748368791 Dipole_moment: 1.159
 S          -1.31646593312524    1.03075549149680    1.10780956708575
O          -1.15660354592976   -0.26663542557029    1.76141910495259
O          -0.06786688939131    1.49567468568698    0.53219976144566
O          -2.42786157966586    1.03889726770288    0.18193946180156
O          -1.67425386017732    2.06225277873739    2.25269199818483
H          -2.55301649469237    1.78840831590616    2.49249230432394
H          -2.35582764257053    0.06467971904100   -1.13105116001159
O          -2.20381982065539   -0.53098721596073   -1.90409452183474
H          -2.84623162153852   -0.27688361093981   -2.56802685893289
O           2.53868675407655    0.90421473309424    1.13940382174643
H           1.69372667842017    1.38249437256077    1.07342559669009
H           2.92887605829288    0.95255318151543    0.24331527853834
O          -1.31492266190774   -2.43893034788985   -0.00214181038952
H          -1.53275424095540   -1.81834069046591    0.70554776903862
H          -1.72236860481771   -2.07242916556762   -0.79562937345231
O           3.03038016244047    0.81786906405951   -1.53590958587979
H           3.02936313624967    1.64678008626025   -2.01680470981581
H           2.17371351293445    0.39467544843521   -1.71566962074895
O           0.45532608739727   -0.14482170603531   -1.48034509896062
H          -0.39952068834467   -0.40432635082259   -1.86496190516671
H           0.23846461413882    0.56892179667685   -0.84314988852432
N           1.11888788254741   -1.27153695248637    0.88455683737340
H           1.86150167602674   -0.53542628008123    1.10172176418568
H           1.36417093656544   -2.22004300778963    1.14676426710962
H           0.23396413939933   -0.96347233295235    1.36880266913314
H           0.90445196532179   -1.20434383464379   -0.13430566790605
