    26
        -50.47014110  Gyration_radius:  2.40826282364 Dipole_moment: 4.174
 S          -0.52964177690957   -1.37454591759154   -1.14226265757640
O           0.04976466811362   -1.91774964517989    0.09976962084703
O          -1.90963297018191   -1.70108149538255   -1.31817636614919
O          -0.32981647201481    0.09620933580852   -1.13519630072089
O           0.30447191478372   -1.93326496455938   -2.32349936436551
H           1.23153082097043   -2.02404040968860   -1.97675744619845
H          -1.92862783380101    0.36424155728185   -0.47485502303477
O          -2.66515649034945    0.48835053690209    0.15540381509280
H          -3.29190775028011   -0.19331700581717   -0.10409461082235
O           2.50402531432158   -2.02802812702999   -0.93571339205354
H           1.85138797522270   -2.26218212478836   -0.25655284175729
H           2.70102593472075   -1.08913940502271   -0.77709228028900
O           0.92500013832413    1.68317452083001    1.73667785081308
H           1.59324867977586    1.31217046397791    1.13233268908999
H           0.39001570154658    2.27286231141273    1.16270776825145
O          -0.64622029168444    2.68429366426722   -0.20108005264572
H          -1.58814255163634    2.70443486920779   -0.01474373339708
H          -0.50555012831600    1.87584292348110   -0.71901000328927
O           2.13318245316418    0.66037352429934   -0.50781657768930
H           1.20499246076304    0.43491718324763   -0.77591381087351
H           2.42553806731086    1.34366745032365   -1.11406783577622
N          -0.79320955441020   -0.28440911820778    1.93101959137652
H          -1.66128438329835    0.06923560899294    1.46812577288245
H          -0.07355680139802    0.51481470684445    1.96582258705215
H          -0.98107418402940   -0.66379335759803    2.85243183892827
H          -0.41036294069212   -1.03303709600405    1.27254078228135
