    26
        -50.45971338  Gyration_radius:  2.45387836493 Dipole_moment: 7.640
 S           0.46589502218530    1.85606131385825   -1.45128913168441
O           1.46560419335187    0.82782720979148   -1.80184775570843
O           0.93247284827968    3.19365580697575   -1.57668054249718
O          -0.74615747641230    1.63834946288350   -2.40517955429648
O          -0.04650757562748    1.55611636602033   -0.08772286060460
H           0.75029807013306    1.15761185457567    1.18746809926741
H          -0.98894746664477    0.69325995509027   -2.27086294366058
O           1.25886081209031    0.77662951883739    1.96268112859350
H           1.61298399806797    1.52859031443910    2.43865055465968
O          -2.40464167214062    0.66018988850536    0.45556769735570
H          -3.05088384355807    1.36679557807968    0.45197927569564
H          -1.53070455650112    1.08055380641818    0.23420963886562
O          -0.08225412659045   -2.44879469648153    0.07532724561246
H          -0.34854735373470   -3.36301375101188    0.17599410915092
H          -0.45075899851902   -1.95438487857566    0.86528987358154
O          -0.92875639175448   -0.99939982047386    2.06759861973541
H          -1.61030477222075   -0.44878402563538    1.64399240900520
H          -0.19026616728306   -0.39861074605458    2.25128351641732
O          -1.50764296242233   -0.78826209471030   -1.70365352129690
H          -0.89892406858882   -1.40220992511496   -1.26517231193227
H          -2.07217146506805   -0.43620569709479   -0.99510512625291
N           2.09970965155985   -0.84599901551301   -0.03515988510037
H           1.39678982597612   -1.60680105245668   -0.06057893810070
H           2.00687611736547   -0.33310113008635    0.86043231049925
H           3.03882079997274   -1.19834176732500   -0.17746708444473
H           1.82915752808261   -0.11173249494786   -0.83975483285872
