    26
        -50.46040351  Gyration_radius:  2.6825538145 Dipole_moment: 2.816
 S           0.56213515730970   -2.76473001179476   -0.22165663452781
O           0.58941954337610   -2.23603061059704   -1.58223870530323
O           0.34945703113389   -4.17148027515177   -0.12890843449006
O           2.03091024786990   -2.49044049563431    0.37975326339101
O          -0.30780339580900   -1.93726779267033    0.62028138854068
H           0.65360667131554   -0.73398462385415    1.14476819236471
H           2.45265426898344   -3.30880939058834    0.14351739454783
O           1.21038849587016    0.02699988665257    1.43537273178780
H           2.04599593864383   -0.36780801430048    1.69107603207429
O          -0.44416613662991    3.49320191971962    0.20012504241404
H          -0.82156054267374    2.82564401456697    0.82339653477312
H          -0.23951744652327    4.26636001199560    0.72667661173717
O          -1.18091428441288    1.48955300193778    1.78346427552385
H          -1.70939897721593    0.89885149028541    1.22404313918012
H          -0.34082760230324    1.02882220778810    1.91886315050153
O           1.35789852900761    1.72593263960142   -0.67821760471311
H           0.79789450922260    2.49134654031291   -0.42011586167644
H           1.44352268492142    1.17845838595144    0.12865194712093
O          -2.25743119979662   -0.35386341827857   -0.03036478594278
H          -1.57250016284020   -1.01056667278869    0.25580950324019
H          -3.10301132522253   -0.79777875420932    0.04372711929634
N          -0.31721048976760    0.16201252424578   -1.91150308623403
H          -0.49351624393224    0.38323202520493   -2.88507418985365
H           0.08524899896474   -0.82941402041670   -1.82042810572168
H           0.39826686948766    0.84846723848872   -1.48030712502534
H          -1.18954113897672    0.18329216361137   -1.36071181294118
