    26
        -50.46161249  Gyration_radius:  2.54555511279 Dipole_moment: 3.657
 S          -1.64201484730027    1.63504794640594   -0.57728540186509
O          -0.47156541891034    2.50933565782157   -0.64972506924836
O          -1.55490762622701    0.49284557229663   -1.44347890810836
O          -1.94262135420474    1.27963289023904    0.80576985406874
O          -2.86360547305811    2.51691975746460   -1.08360915855531
H          -2.80498775424610    3.29692973492740   -0.54038322251412
H          -1.63644423653914   -0.26905239918881    0.80789347000086
O          -1.43524730471529   -1.24275143087007    0.74083872323833
H          -2.27838769118299   -1.65529903218643    0.54675705821317
O           1.12525572276558   -1.07996042563243    1.85434948181582
H           1.19147460883584   -0.11211250885415    1.74964004417281
H           0.18964745583685   -1.27627834591902    1.71047730666294
O           2.22678190304048   -2.72463256528697    0.10844087985304
H           2.23257125763658   -3.60079699116438    0.49508710009081
H           1.98139089926523   -2.10237502586176    0.83832590708330
O           1.54286288101312    1.01285697878147   -1.42900915305331
H           0.78360146757483    1.62942318390677   -1.32342778582928
H           2.08634275946872    1.14723090114868   -0.64667568081611
O           0.78992832149460    1.61361199387498    1.52604453435603
H           0.36310289718889    2.01235861091269    0.74129615629456
H           0.11947998403353    1.67696305759792    2.21063069935453
N           0.40034804098152   -1.37701359140361   -1.29924100805256
H           0.01691746285488   -1.64808833389901   -2.19817773331283
H          -0.38460388770513   -1.26754837090034   -0.61419092137026
H           1.11124897852344   -2.04782229280367   -0.92668426187881
H           0.85343097323191   -0.41942494178905   -1.40366291057746
