    26
        -50.46075412  Gyration_radius:  2.40803891347 Dipole_moment: 8.021
 S           1.10868740270478   -0.73674906550384   -1.59488947118576
O           1.39936925248769   -1.19841122540605   -0.21834836121399
O           1.76358614514763   -1.49260896777469   -2.60249932657370
O          -0.47061438634022   -0.91096346053145   -1.73270271795337
O           1.29478012741863    0.71297181228080   -1.67007830219333
H           0.20619036000302    1.68741470838901   -1.03598515475321
H          -0.64421598271314   -1.76798793808923   -1.26997710109879
O          -0.34783523609625    2.25417439403445   -0.42869440701380
H           0.07157318889347    3.11665522182587   -0.43775568675528
O          -0.67410945727292   -2.83139362652751    0.00379931476997
H           0.26124123747393   -2.59127510128141    0.11498564915339
H          -1.15664784062525   -2.34466274335614    0.69236346524580
O           2.65701055575045    1.64056260012645    0.46938342017203
H           2.25600445075130    1.30638823910877   -0.35660029953231
H           3.60263106410078    1.55733906742753    0.34466004158755
O          -1.93804444188749   -0.92272140162023    1.67339411886254
H          -2.23352158203645   -0.40485200550031    0.87506889173846
H          -2.73412826447269   -1.15573950188797    2.15227133107864
O          -2.47624845813007    0.49053481926551   -0.47764528070986
H          -1.98674432271225   -0.02027554277744   -1.14249175484742
H          -2.01427797894045    1.33993268101282   -0.44306476313438
N           0.39999556684665    0.46276694376334    1.45211412579464
H           1.09789194989673    0.79074210542547    2.11331111728524
H          -0.40648972641105   -0.00743140327766    1.88774860855091
H           0.08207823056318    1.26509197614471    0.85917186562272
H           0.88183814560762   -0.23950257526412    0.77246067709696
