    26
        -50.46746626  Gyration_radius:  2.41238976525 Dipole_moment: 5.265
 S           1.34039324582481    0.14647707452978    1.28503340283313
O           0.35468495964871   -0.75782229308418    0.67266681199169
O           2.58073376385728   -0.51125493762698    1.57686234754216
O           1.63220410769490    1.21690303252050    0.11824761464524
O           0.72533458245917    0.91628612467105    2.34108287894369
H          -0.82004675440660    1.12598628109054    2.09646717735645
H           2.27894524045392    0.71029339857739   -0.45248174155879
O          -1.75605988887411    1.37192553214155    1.84296500981283
H          -2.01732109358220    2.05001080539677    2.46837735644850
O           0.76777112186831   -1.91382706454147   -1.57805295684920
H           0.62628741570527   -1.52076400341031   -0.67441551154046
H           0.70664667110566   -2.86417599606773   -1.46713624869572
O          -1.64740623988827   -0.57673826391203   -1.86978421336142
H          -2.06264767254897   -0.95375390258693   -1.05864840295125
H          -0.82848528171709   -1.08897116709456   -2.00166454361784
O           3.12116751250630   -0.51765752552724   -1.02387728369111
H           3.22770731217085   -0.79540369113155   -0.09476399067953
H           2.46640094262520   -1.11279630799795   -1.42710340872054
O          -2.27548517931664   -1.20411659127841    0.64416352246594
H          -1.31173551572437   -1.19151558129912    0.79844619937437
H          -2.60453884748772   -0.46773435191767    1.16949170515540
N          -0.90557890441484    1.61208074043490   -0.68638109125254
H          -1.09242282103663    2.46956466559285   -1.19588875166929
H          -1.21881387423335    0.73570842958488   -1.25409334404131
H           0.11046431100822    1.51972224783982   -0.46981162439384
H          -1.39819910369893    1.60157335509272    0.24029907645773
