    26
        -50.47044782  Gyration_radius:  2.42973183929 Dipole_moment: 3.738
 S          -1.76416361859291   -1.19880419203122    0.54194000051729
O          -1.53946327324692   -1.70730497190606    1.86551485061875
O          -1.82710169854030    0.25612181725772    0.48409558152240
O          -0.82067352448528   -1.70980576093505   -0.45206059727933
O          -3.19382198586725   -1.73447491899814    0.09580090377974
H          -3.47699071544969   -2.19377365897828    0.87965866923946
H          -0.34309629658164   -0.81460181685941   -1.68454188644483
O           0.06620790629238   -0.29214774955296   -2.42700642199833
H          -0.09555856852543   -0.80207859478805   -3.22178547424781
O           1.26598320849886    2.34487665871974    0.39515408126341
H           0.93236550125636    1.95807520450217    1.21807169965863
H           0.46855370929466    2.45725705147258   -0.18138169705555
O           0.09854133524690    0.57098806034386    2.23151967352730
H          -0.23273145604560    0.22348552246399    3.06243513273506
H          -0.66390535213791    0.50261873934494    1.61273530635259
O          -0.83377847615198    2.09423104236098   -1.19991927242197
H          -0.56100373174869    1.47508501577581   -1.88952972773933
H          -1.36045124127947    1.55034171670780   -0.58561020195096
O           1.40542154654476   -1.48584490357599    0.99466888590604
H           1.06018416614213   -0.85381944077198    1.65444979147440
H           0.60632408167250   -1.81504388520625    0.54017042433759
N           2.19281290424038    0.23432078056454   -0.80790244563418
H           1.53149201786048    0.07027833535680   -1.59055671628986
H           2.00799926541178   -0.53220779575612   -0.08029073006529
H           3.15531277590940    0.23581352664588   -1.12389154165092
H           1.92154154025717    1.16641422787443   -0.33173829817787
