    26
        -50.45914078  Gyration_radius:  2.58625987162 Dipole_moment: 4.023
 S           1.36675166894116    1.92502990143963   -0.25644506500654
O           1.57916321172196    3.10431458713883    0.52907828171440
O           1.71658742806106    0.67514249491770    0.40031063570108
O           0.04267962739653    1.84187294908829   -0.87814647679925
O           2.38826839276949    2.02546913965375   -1.49669697636229
H           2.66840452480293    2.93567099455423   -1.47345152601743
H          -0.43905375657376    0.58941125947024   -1.70647091807968
O          -0.70330734235299   -0.23030139759640   -2.20881095652899
H          -0.99349303910706    0.06989083097869   -3.07093083909349
O          -1.21192257628548   -0.54839741897090    2.21106869715652
H          -0.90556212124047    0.36808337950237    2.03655964942426
H          -1.74549719014313   -0.49349521571148    3.00515102010061
O          -0.68327905066944    2.02429551624032    1.68496116515934
H          -0.69578364762353    2.02805905894669    0.71452222389671
H           0.11613707024115    2.51719057214337    1.89966872063506
O          -0.34678013248585   -2.85559677350123    0.92624872883729
H          -1.18346759027553   -2.66881999347405    0.44424382683530
H          -0.38153494393269   -2.22779471918969    1.66438277363662
O          -2.30221200860487   -1.47150520817619   -0.24107852658015
H          -1.88284152487735   -1.00073285264312   -0.97668829852950
H          -2.15602086889074   -0.92534448532752    0.54641075491618
N           1.16781160757474   -1.55793527540669   -0.76788549424800
H           0.51713991831295   -1.26818373476923   -1.51771912653238
H           1.98318744395892   -2.03063395595334   -1.14025145248445
H           1.45131278359851   -0.65407022910056   -0.26247346895595
H           0.63331211568931   -2.17161943424748   -0.06555736279797
