    26
        -50.46648823  Gyration_radius:  2.59459907823 Dipole_moment: 2.917
 S           0.42658583921267   -1.17217152161854    1.75122944886225
O          -0.37050091136287   -2.27858173079188    2.20961076516692
O           0.74688641362784   -1.24159090473923    0.32551624117569
O          -0.09969385118736    0.14576532461752    2.08259761239840
O           1.81895460007779   -1.28691144902561    2.51180383647633
H           1.79529891526490   -2.17630161452141    2.84974935612125
H           0.32095259053945    1.41673216871112    1.20128552426251
O           0.50815082103517    2.16353748539431    0.57484194817066
H           0.41051731095071    2.96674974719538    1.08769159959734
O           2.56021550023974    0.57315336118366   -0.57197632882123
H           2.10526226350029    1.31892998154733   -0.15567975408516
H           2.11978188298055   -0.21593504652152   -0.20978662208124
O          -2.48501000680990   -0.88602412131426    1.35369104598457
H          -1.99337760366625   -1.68138669892177    1.61657021217578
H          -1.93973247746402   -0.17678431283932    1.72072233849742
O           1.56725085534003    0.65353914640125   -3.05174511176368
H           1.98614075565490    1.34282285322589   -3.56754879470786
H           2.09403287685601    0.56564963579224   -2.22067765898887
O          -3.02144122908834   -0.38849804328454   -1.20810504426224
H          -2.94692757221834   -0.56045594185881   -0.23968124063735
H          -3.32401417574414   -1.20897413562109   -1.59990008625756
N          -0.47552551231323    0.43464463856778   -1.31490713735074
H          -1.48240988307001    0.19744061516616   -1.45942473866387
H           0.08095922075522    0.50463644261766   -2.18867778857091
H          -0.36337782909423    1.30788256880183   -0.77921552125990
H          -0.03897879403720   -0.31786844824047   -0.71798409134068
