    26
        -50.46919489  Gyration_radius:  2.46735090236 Dipole_moment: 3.373
 S           1.47333998117964    0.30416549723427    1.86921391115709
O           0.06964602295551    0.69329765273835    1.81982622573690
O           2.26727516638211    1.00862658065295    2.82075775455054
O           1.48949491647876   -1.23528648394172    2.32419189222309
O           2.02487176824452    0.26494290751380    0.50658898175955
H           1.41484307148118   -1.13350618809720   -0.07807957964786
H           1.75270681094481   -1.13446772531649    3.23164326678397
O           0.97370296488124   -1.93222248620397   -0.45431969889997
H           1.50734910169015   -2.67841642328831   -0.17805793204952
O          -0.34457394792816   -0.58637052934889   -2.49154328440687
H          -1.22771578802628   -0.47158809045436   -2.09251181493449
H           0.10732855438803   -1.24606202867080   -1.94056351819366
O          -1.31238565655892   -1.39514962787147    0.97647746889772
H          -0.87601636359645   -0.65001284685318    1.43969813198594
H          -0.58508478126646   -1.83737424563649    0.50668700796521
O          -1.33231899872767    2.17562944122141    0.07032248137228
H          -1.94477786264737    1.49659323856789   -0.26784263777573
H          -0.92507614479569    1.77907201917444    0.86545759855062
O          -2.53312354480672   -0.10303305648335   -0.91475748636837
H          -3.45659229426959   -0.34957631475329   -0.96690036095923
H          -2.13906525053628   -0.63574027730381   -0.16153636922547
N           0.73666932032793    1.55704676549485   -1.39987784126363
H           1.35115238022898    1.12855883015622   -0.65979154940740
H           1.24205145432090    2.24470116726881   -1.94579254410399
H           0.36704949286701    0.75789948949473   -1.99729816401551
H          -0.10075038320276    1.97827273469464   -0.88199195973496
