    26
        -50.45189001  Gyration_radius:  2.46263780632 Dipole_moment: 2.888
 S           1.06323806968711    0.20160336065738    1.55935906910125
O           0.98762939623876   -1.23768591410038    1.60812325429678
O           2.34309006215265    0.76027823181025    1.27594123796779
O           0.03505772859585    0.70054302039116    0.51474921191064
O           0.48395879255287    0.80234500516382    2.84797108140644
H          -0.39389930986250    0.32306546554763    2.92891726275931
H           0.23208555647115    0.33149182358945   -0.42583792586553
O           0.50812765738928   -0.05270082991220   -1.85653467470122
H           1.31345614526422    0.52612088854075   -1.95768053864939
O          -2.52006907091928   -0.85111954316067    0.05655019534577
H          -3.31297234852698   -1.37221461484041   -0.08143111591287
O          -1.52568163837033   -0.77118630973695    2.62323763952549
H          -1.97882136152705   -0.62838221712369    1.76764666028560
H          -0.87359085795818   -1.46417480915957    2.45701010016050
O          -0.37975486778597   -2.28853304107092   -0.45862552190797
H           0.02192596373860   -1.82578930099258   -1.20604174185057
H           0.19195513154482   -2.08669920946993    0.30547334571727
H          -1.75229836212267   -1.44137127495894   -0.17719933192607
O          -1.85492085579107    1.19816902606445   -1.70303108405678
H          -0.27673026568758    0.43289581472488   -2.18430104672761
H          -2.19739457268423    0.50156072215558   -1.11301619840882
H          -1.63388347245042    1.92724907113745   -1.12004449098983
N           2.66216859226534    1.45429863259041   -1.53941728822532
H           3.54135710155927    1.12165260851137   -1.91623626401054
H           2.68092460851040    1.28054804592215   -0.53322282680193
H           2.63504216773944    2.45803532776993   -1.67235897846988
