    26
        -50.47144243  Gyration_radius:  2.41509666552 Dipole_moment: 3.969
 S          -0.46581568657496    0.76658012256675   -0.34674244193501
O           0.49956024680648    0.84101896891157   -1.44493264747334
O          -0.12701081234212   -0.36090642316479    0.54199748310349
O          -0.22683780263491    2.05353072889446    0.50114070605068
O          -1.83476653887267    0.71365897192340   -0.78288790836509
O          -0.70407839946349   -1.33836377867790   -2.47967213568810
H          -1.61532353134495   -1.17886915492713   -2.22041415718276
H          -0.26514315806650   -0.48419931554355   -2.33881244717666
O           0.95257965375658   -2.51654596481126   -0.67681667635624
H           0.49059337326049   -1.97359714232157   -0.01285463512467
H           0.40170330314544   -2.40483034736221   -1.47565181910710
O          -2.12987092910177   -0.23900733263751    2.31265194835616
H          -2.73594618147050   -0.95235152190965    2.10486563962873
H          -1.36381545449655   -0.34931194436154    1.71653103842100
O           2.16331621602990    0.56557132843694    1.50207681410409
H           1.27806101997399    0.17980984633756    1.33705625069567
H           2.01357653610452    1.51305452744957    1.54438286072882
O          -2.65143831285029    2.20501509206085    1.29666233484610
H          -1.12120486312855    2.28483560358771    0.90051676912948
H          -2.84820380833691    1.81205130392566    0.43200636404347
H          -2.61902316978090    1.44423571599223    1.91126906229079
N           2.63114911616813   -0.52335803688774   -0.87958728707897
H           3.46911061490847   -0.52353484496164   -1.44979339105864
H           2.79135365959306   -0.17367941249240    0.09255909773885
H           1.86943855413564    0.11711401433318   -1.25594224339864
H           2.14803635458257   -1.47792101437011   -0.82960859919757
