    26
        -50.46788074  Gyration_radius:  2.39857082848 Dipole_moment: 5.650
 S          -0.21676544512862    1.65310635678893    0.69310062105704
O          -0.78266037483660    0.93620089922510   -0.44438793815488
O          -1.19095375016087    2.47086547201157    1.36380480646883
O           0.42105136109290    0.68115856881618    1.61213147029166
O           0.92825286194765    2.56403667786970    0.15243030767450
H           1.50064760792094    1.99048060485343   -0.41129670252962
H          -0.58713398719492   -0.44846211055881    1.59685167652942
O           0.16428617953662   -2.42714720184336   -0.52285866812708
H           0.41772761004310   -3.35104314460689   -0.51878630522431
O           2.36672346699393    0.99122958655317   -1.45011706201264
H           2.78958634809784    1.54313693789169   -2.11008471499150
O          -3.15181479064445    0.75494039757629    0.88757545321798
H          -3.19511223703456    0.87035345435952   -0.06623672803885
H          -2.55312060824286    1.48014964046274    1.18314985848223
O           2.11081412867704   -1.00502036563650    0.48188964902585
H           1.58592375070004   -0.36952227206569    1.01687596851312
H           2.53984678099365   -0.45553674871525   -0.18637939083613
H           0.94899182561898   -1.92183263862867   -0.15981505661962
O           0.33923882523524   -0.31656478902208   -2.43895336364214
H          -0.21508380230783    0.20746696157114   -1.81920706307235
H           1.64624303901058    0.48187677561388   -1.92465420667625
H           0.28728471035235   -1.21409984611634   -2.08448917927896
N          -1.36679132974438   -1.14945866711144    1.35706529725009
H          -1.58899958047044   -1.74949704819605    2.14473177690102
H          -1.01380625289652   -1.69698855368235    0.54589569817013
H          -2.18437634762601   -0.51982892740180    1.10176379562427
