    26
        -50.45755856  Gyration_radius:  2.40731558198 Dipole_moment: 7.013
 S           0.80140915315751    1.39046524152738    1.20321501193680
O           0.75153862789707    2.56071801715505    0.35933299536946
O           1.37706196003474    1.51296126885922    2.49814497378962
O          -0.74791594740233    0.96534992887452    1.45341153366118
O           1.33671431315031    0.22138766021496    0.46449943452526
H           1.21396716364976   -0.09255370710825   -1.06389320836822
H          -1.22872251506726    1.12231409941232    0.60572817776373
O          -2.09475214240001    1.10574009835785   -0.81476266506497
H          -2.83541725408573    1.71292229208663   -0.79644485123119
O           1.06722659259444   -0.35161953528217   -2.01769352251749
H           1.91051300361095   -0.66408496461654   -2.34586298619711
O           1.85725524518246   -1.90006867627098    1.86163216742287
H           2.66046184215149   -2.31345243319632    1.54375741394022
H           1.82763612809208   -0.99554522836500    1.46140906689095
O          -1.25932100779148   -1.48672652818831   -1.21580511571385
H          -0.41997839051873   -1.23059378516242   -1.64691260984202
H          -0.94079651823202   -1.75424267884822    0.29151003756975
H          -1.77180012749791   -0.66114620687646   -1.18521344174415
O          -0.12696877121461    2.14851041171105   -2.06369191433808
H          -1.38632053666008    1.54479419064117   -1.39652452355267
H           0.29120645094884    2.44735210965040   -1.21885048735696
H           0.37650816327875    1.36616564279682   -2.33722897252008
N          -0.73317012584843   -1.70684593691070    1.34448522892379
H          -1.41129938711097   -2.22996126688443    1.88824187688666
H          -0.76009399005169   -0.68563129206870    1.58362060437482
H           0.24505807004163   -2.02620877121459    1.54389579536479
