    26
        -50.45755847  Gyration_radius:  2.40714372149 Dipole_moment: 7.011
 S          -0.90922260989916   -1.74416731267631   -0.38960335505267
O          -1.00153068423073   -2.32023548208370    0.93089225858285
O          -1.39375527132622   -2.49899350220820   -1.49356580792118
O          -1.82361852612088   -0.40048026539754   -0.34563742847642
O           0.44656868703562   -1.19850567662819   -0.64092887860138
H           1.45164585266599   -0.59343163647689    0.39527837398512
H          -1.68637180797515    0.01101580697878    0.54108805448057
O           2.06551127144832   -0.12331942058888    1.02810687780461
H           2.94552464920907   -0.45350978948626    0.84661273345863
O          -1.35784048492948    0.92971204682856    1.88845970927892
H          -2.12974687346163    1.05259934609034    2.44222572381989
O           0.96290599310770   -0.44123557225243   -3.06654401335955
H           1.86134577527066   -0.67711618372840   -3.29945006719248
H           0.74411903298628   -0.94236552334048   -2.24181965743165
O           0.67750581540589    2.14011363410644    0.48456302992404
H           0.09283057941810    1.78524308879040   -0.92162441717092
H          -0.06602632281448    1.95096343576148    1.08167555271055
H           1.33948897746443    1.45468513192574    0.70333626430747
O           0.12022461899378   -0.92643989298904    2.83122187628573
H          -0.77649266716973    0.24568918053042    2.36527407779939
H          -0.27668785748568   -1.59591661572039    2.22109598197737
H           0.98486005308420   -0.71049867149643    2.44894479483842
N          -0.43966087252734    1.39236301554498   -1.76793440656495
H           0.20809328247184    0.86313534743480   -2.39959966170371
H          -0.93776680711108    2.11806791301336   -2.27227945544256
H          -1.10190379340285    0.68262758810343   -1.36978817019305
