    26
        -50.45755851  Gyration_radius:  2.40724251236 Dipole_moment: 7.013
 S          -1.61642708810783   -0.23207182346138    1.16437167382560
O          -1.17465053696178    0.38396435880041    2.39300626158432
O          -2.91556257765160   -0.80997595870919    1.12498903542892
O          -1.63649154342144    0.96065382024499    0.05958127466710
O          -0.58316083359661   -1.14856619342629    0.62448041492989
H           0.97198610213428   -1.04102613394938    0.76597875655029
H          -0.85306279086351    1.53311096690697    0.24128101973267
O           0.54889638963800    2.42770920745245    0.28233857249635
H           0.38529290721676    3.35196234939400    0.47368805658736
O           1.96572312363346   -0.93734617182352    0.77035554954880
H           2.32692165261960   -1.80180345346838    0.96710294797860
O          -1.28371437854546   -2.64277117612555   -1.37568731750484
H          -0.89796617598135   -3.51456684419323   -1.28486024836649
H          -1.18178375241787   -2.19594111579873   -0.49865929842233
O           1.68328456561148    0.60458655811595   -1.44049763810494
H           1.42785368352575    1.41543377547061   -0.96884188677380
H           1.96717696812651   -0.00485336070289   -0.73062747284447
H           0.31691627576155    0.07410079697562   -1.98507313589916
O           1.30199539673539    1.20756185765751    2.39490340129094
H           0.38420687545361    0.88571189343184    2.57397986755214
H           1.77574363724588    0.44421895560206    2.02994536823300
H           0.92598676660499    2.02685682645991    1.13689979327459
N          -0.70905655829917   -0.18318420515246   -2.17302744559690
H          -1.02597898018060    0.15743664537490   -3.07453229778080
H          -1.25002188165514    0.25610792878554   -1.38872896957659
H          -0.85410721675636   -1.21730949383359   -2.08236626273505
