    26
        -50.45755847  Gyration_radius:  2.4071707895 Dipole_moment: 7.011
 S          -1.53556440272516    0.65895057783790    1.10859551653016
O          -2.15748045386307    1.59874215540252    0.20632255720389
O          -2.08923328403674    0.50032990374339    2.40919709635484
O          -1.67899888766798   -0.79433187989318    0.39378507911439
O          -0.06553905899335    0.84991560358481    1.14918799429131
H           0.87388697917996    1.36071097958443    0.00617484648177
H          -1.54314199917210   -0.65283841876839   -0.57364935917861
O          -1.09332765852171   -0.59366770055387   -2.17419300464906
H          -1.80488427664930   -0.85017617071019   -2.76196573619481
O           1.49602450101765    1.59808746708763   -0.73874040564438
H           2.12495538299543    2.22267413381268   -0.37709750536673
O           1.22885543062388   -0.47331547087287    2.96505060032638
H           1.92951943785154    0.06878942876466    3.32874063369757
H           0.63483680245141    0.13514729997265    2.45894136095824
O           1.50866997371781   -1.03283585224596   -1.38962044879969
H           0.66269952199874   -1.02458769952701   -1.86859070498115
H           1.70016064869982   -0.08792117389875   -1.22737684782156
H           1.12304404588959   -1.66857856207246   -0.01403894869331
O          -0.91369312929190    1.95069355496683   -2.06113632995706
H          -1.02192565813220    0.41781690307083   -2.24483716576394
H          -1.45106251809208    1.98344725578029   -1.23160348700540
H           0.00513397450041    2.07638938902136   -1.77767700648710
N           0.65058520510420   -2.01153462610648    0.88780123151527
H           0.67583127798383   -3.02251053730239    0.96782130092766
H          -0.33598062202281   -1.65886541751030    0.83168330851303
H           1.07662874715152   -1.55053114314993    1.72722544438769
