    26
        -50.45755841  Gyration_radius:  2.40722769411 Dipole_moment: 7.013
 S           0.38970022317804   -1.52090274485034   -1.24767694167009
O           0.77007784040956   -2.56040251028310   -0.32087152563679
O           0.42894897110973   -1.80720436626196   -2.64044400446585
O          -1.16627858568264   -1.18629275068810   -0.91527138357926
O           1.06648377104124   -0.24191015069716   -0.92325726927729
H           1.51796311247632    0.28156235466317    0.48109597728494
H          -1.26714829998042   -1.23552020675483    0.06542038614847
O          -1.51563710483589   -1.04389187522452    1.69926037778421
H          -2.15153074947230   -1.67036733686331    2.04668323991299
O           1.72966707391281    0.66848948293508    1.37763294496515
H           2.60471173669064    1.05031687665798    1.30765915289348
O           0.82610917016022    1.67398796213057   -2.65386339994880
H           1.03018537044392    0.83486982256426   -2.17068715702459
H           1.65094780396175    2.15521602061989   -2.72620844020159
O           0.86236713676256   -1.83641598752137    2.18507678861369
H           0.94594095817664   -2.23856104143382    1.28548855717001
H           1.36418510122230   -1.00763771431457    2.14395868212135
H          -0.60302601057184   -1.37326626032147    2.00224243390589
O          -0.81360283910134    1.60409432442598    1.42730443520056
H          -1.22600746503946    0.76683205946378    1.69944770384867
H           0.14551756310625    1.43886675780460    1.52032547450732
H          -1.12572031826797    1.66363220280281   -0.10371127854194
N          -1.33769441922293    1.47319052349642   -1.13955681613365
H          -0.54312297671020    1.79147011894647   -1.74459604994940
H          -2.21494393370397    1.89189023091660   -1.42983853149766
H          -1.36809315004138    0.42795422782051   -1.22561334648858
