    26
        -50.44598984  Gyration_radius:  2.51182515584 Dipole_moment: 4.286
 S          -0.70669884331814    0.37041123102320    2.30794572005433
O          -1.41977118600223   -0.40525709015854    1.31686691237255
O          -0.76642853617496   -0.09005745016061    3.64492463369483
O           0.77480929119073    0.44944684485353    1.81637463139530
O          -1.12972487451963    1.84844068584217    2.22089117213206
H          -1.21964445816305    2.02806808910800    1.23958304120035
H           1.00656270290129   -0.43469588400623    1.35356745932893
O           1.04964796501275    1.45214145571041   -1.68405983594954
H           1.36477377776722    2.09017008337306   -2.32546000304195
O           1.35621184092887   -1.68550844009447    0.59001926723821
H           0.80841319337044   -2.38593797856526    0.94839461565216
O          -1.30936428212075    1.72241563078829   -0.33282702494522
H          -1.49356218385874    0.79869640629908   -0.10390888868766
H          -0.47124445228997    1.71615325632683   -0.83421463987095
O           2.92026210930494    0.89789895622330    0.12146414485821
H           3.04343144241331   -0.05624710944865    0.09149183001654
H           1.78804919988361    1.30519209151762   -1.04285677141486
H           2.42114279331140    1.06909887050401    0.93048834324640
O           0.47027222882740   -1.26563096614684   -1.79139498919928
H          -0.50638664175829   -1.38940311211651   -1.69941512272390
H           0.61356783820716   -0.31849118023984   -1.94206938759498
H           1.04830796002768   -1.55763292533139   -0.36770252612681
N          -2.16492515262696   -1.52779306816396   -1.23919000188951
H          -2.08850277544540   -1.32304636241641   -0.24545696784590
H          -2.57614213143672   -2.44778492169843   -1.33343356026857
H          -2.81305684543932   -0.86064709301647   -1.64002203163750
