    26
        -50.46788065  Gyration_radius:  2.39879064166 Dipole_moment: 5.651
 S           1.04222818366944    0.22880510940801    1.45691091576540
O           1.05761493181369    0.75148983940973    0.09505730573813
O           1.41208231942220    1.22257606022666    2.42819948104523
O          -0.29035550482715   -0.35530146502066    1.73864162986135
O           2.06141619045463   -0.95036429913225    1.51989135966748
H           1.85180504229977   -1.54296712211266    0.75876887935490
H          -1.20440768355696    0.66480600162726    1.09370694122081
O           1.52381920176954   -2.44563210512827   -0.62143499903918
H           2.32636984929225   -2.90599089810002   -0.87232731001456
O          -1.78449162521896   -0.15621386398893   -1.72842291711818
H          -2.57816033553343   -0.39656931024670   -2.20814182221398
O           0.27781506387457    3.18069147570229    1.05109200392123
H           0.88294168478953    3.18167394486735    0.30370975564111
H           0.71541340243849    2.58698944680613    1.70506043052331
O           1.01445658141421   -0.44996407815514   -2.21996568374563
H           1.37028472225572   -1.74169908542972   -1.31763046159441
H           0.06850075802035   -0.36886141047353   -2.39996856123669
H           1.14902992869091    0.12652890197264   -1.43525360983735
O          -1.18304728405756   -2.07244320722375   -0.05881356902969
H          -0.37939238993628   -2.54071678444938   -0.31850469443332
H          -1.57739295321430   -0.92997550041128   -1.12742975241354
H          -0.90848441442165   -1.53176583960162    0.71438797984042
N          -1.64499872565779    1.44127679154898    0.49382256653774
H          -1.69133981594599    1.05902015129354   -0.47269879039806
H          -0.94846396107157    2.23898252239717    0.58580071723878
H          -2.56324315676287    1.70562474429491    0.83554220473275
