    26
        -50.46788066  Gyration_radius:  2.39880804444 Dipole_moment: 5.651
 S          -0.17381593583963    1.69772361894303    0.58917394437070
O          -0.92536098860232    0.85229034670889   -0.33206096179551
O          -1.03064455507608    2.52481386469816    1.39497175349866
O           0.71504392956838    0.84685392387166    1.41506393870949
O           0.75961153287335    2.61027914607065   -0.26455282533754
H           1.23662632393773    2.01587958792498   -0.89189693246761
H          -0.19306576742000   -0.32686510230080    1.71647889245935
O           0.20817023440005   -2.45543944236137   -0.35280827007957
H           0.51714925231418   -3.36203038792453   -0.33097469561486
O           1.92445713983272    0.96874293259413   -2.01344809815394
H           2.15504625373196    1.47796413907685   -2.79223097687419
O          -2.92666948240550    0.67869094831977    1.50769699375596
H          -3.18552504003349    0.70300018160255    0.58181989033045
H          -2.32874447291963    1.45658024158775    1.60310517057198
O           2.22725924630485   -0.85510367735968    0.07618018586635
H           2.46435085445193   -0.34991707940532   -0.71192295579786
H           1.01760929743003   -1.88213431448162   -0.21549656879960
H           1.78971868618187   -0.19830744430633    0.66165272729109
O          -0.17649131628159   -0.52063223541512   -2.41975629327778
H          -0.09098635398571   -1.38409592402486   -1.99441048145676
H          -0.61744366485516    0.03000764636000   -1.73523468733084
H           1.15416946395147    0.38356065236091   -2.27418120847153
N          -0.95654733220774   -1.08432313810364    1.71455231463267
H          -1.85130340586602   -0.52180510418447    1.60016709606034
H          -0.95882857446601   -1.61889648198363    2.57713584064342
H          -0.75378532498107   -1.68683687830616    0.89097619720700
