    26
        -50.45755860  Gyration_radius:  2.40726381771 Dipole_moment: 7.013
 S          -1.72351909410113   -0.40407283486532   -0.94306056432083
O          -2.13201836624637    0.91362219449819   -1.36853958053621
O          -2.57500988129109   -1.50512464548367   -1.23615909536980
O          -0.33349856898279   -0.70655955245020   -1.73040763104383
O          -1.29094914784913   -0.39720627152870    0.47536405274150
H          -0.62525016141458    0.77152801900075    1.27576993096985
H           0.17129984475807    0.14133036112480   -1.75699460566975
O          -0.11899454126807    1.47476620944740    1.77327834589779
H          -0.51660518033435    1.53026971852091    2.64235320143586
O           1.22266598273711    1.42666786197597   -1.65637425350169
H           1.45421291863735    1.77590989628858   -2.51777761093422
O          -0.85496732690776   -2.70688616395477    1.57057344330122
H          -1.24167890757769   -1.90611240355230    1.13655242485148
H          -1.16965940763759   -2.70660400126276    2.47503204180450
O          -0.58998926565326    2.86508330423931   -0.57756988597190
H           0.56779956211549    2.09028924293077   -1.25137338002862
H          -1.30309182919039    2.25303214392189   -0.88566084682774
H          -0.47112780018132    2.66812113399456    0.36444460565333
O           2.14033403847903    0.40364755230570    0.72878135509610
H           2.06607316584552    0.83304855514636   -0.14029034451985
H           1.44831370299435    0.83536277227317    1.26800925421608
H           1.65595830041256   -1.05428220635730    0.43855695132150
N           1.19661905291443   -1.95435975889749    0.07367579920198
H           0.56051016223531   -2.36538496826450    0.79820665843982
H           1.88476881906789   -2.63011187909211   -0.24091645294065
H           0.57780392829375   -1.64597427002232   -0.71547382327419
