    26
        -50.45106535  Gyration_radius:  2.37030341537 Dipole_moment: 7.551
 S           1.17304149675654    0.43149359443973    1.54166028379193
O           2.41417828824030   -0.23692866418572    1.27723245282143
O           1.18221334530894    1.68239394397193    2.24878553853558
O           0.51135255415549    0.77018393430001    0.12385018645149
O           0.14943635780773   -0.48100831459221    2.12475218964760
H          -0.51207806311625   -1.62087155929599    1.22194668214876
H           1.16655868027334    1.15923544930362   -0.49528523601391
O          -0.96987004863402   -2.25098548940544    0.60645077675997
H          -1.22399310580782   -3.00810485245899    1.13547675815956
O           0.09703107661413   -0.31309055925457   -2.49242164980194
H          -0.00702710053397   -0.87842994094259   -3.25940051276355
O           1.73550918742719    1.78918330675130   -1.98438308604315
H           1.30031130521682    2.61216942442590   -2.21338957836531
H           1.22113668671335    1.07194657045119   -2.40284956238048
O           1.44469134246126   -1.77577104573721   -0.75607167012902
H           0.63567523348592   -0.84133779403493   -1.83953601243082
H           1.92348762493831   -1.26946909224122   -0.07167775440093
H           0.68397058494822   -2.17443470086772   -0.30821506574410
O          -2.04610670049576   -0.03908103210211   -0.66624223923968
H          -1.85293322657524   -0.91520453771615   -0.28713077194850
H          -1.82602304211454    0.88563808280791    0.59354945548231
H          -1.32393900139449    0.09177708380612   -1.30759506553858
N          -1.58485165071046    1.27279472584819    1.57198165396602
H          -0.96663070389987    0.48466822751113    1.99568051715993
H          -2.40161516691154    1.50342257520653    2.12868831419351
H          -0.92352596426287    2.04981066398799    1.51414340562735
