    26
        -50.44312312  Gyration_radius:  2.51355363393 Dipole_moment: 5.530
 S          -0.79116901495418    0.50556926193337    1.25410098230401
O          -1.26224937864972   -0.38975969651138    0.22318139552402
O          -1.25560523452164    0.28006514555379    2.57238200421969
O           0.77542238210948    0.43361725363441    1.22987557449971
O          -0.99675684932402    1.95899432157573    0.81258285849219
H          -0.85313602866103    1.95083411988135   -0.18740146443576
H           1.10183423079666   -0.51731159390849    1.24585513203635
O           1.68980396139039   -1.97029309889689    1.03300425442330
H           1.36063365807069   -2.58972919855683    1.68655489969821
O           1.51599674780575    0.09613867636730   -2.24600409317802
H           1.97981835383428    0.29314856533398   -3.06156193090332
O          -0.71063832810876    1.55209093019988   -1.69319371046805
H          -1.39432826718007    0.87501542817682   -1.72486012859775
H           0.13038276783211    1.08987298893288   -1.89591057808734
O           3.18351093370746    0.17570737155793   -0.18464637214987
H           2.18525575999968    0.15852265411105   -1.51878630722264
H           2.70131056848738    0.75215090576960    0.41874000035898
H           3.13291286922430   -0.70495197053265    0.20668335918890
O           0.27571280333633   -2.12575269091967   -1.12475198672750
H          -0.45710147032224   -1.63192265571163   -0.71277280580025
H           0.69800903708657   -1.49301135489622   -1.72744320048369
H           1.20975275375844   -2.17734508115799    0.17391937609758
N          -3.82330678667098    0.88253986332496    1.20131612724671
H          -3.34703063814424    1.77389698594402    1.13356984187267
H          -3.25572361114310    0.20554650132140    0.70710585849862
H          -3.79331120986424    0.61636635755953    2.17846089338502
