    26
        -50.44312308  Gyration_radius:  2.51349471766 Dipole_moment: 5.525
 S          -0.60990248167588    0.06828646956862    1.44200361633881
O          -1.32252624060721   -0.07478825754668    0.19376164457034
O          -1.13958879674985   -0.59938400360594    2.57249933400710
O           0.85631395907642   -0.42382634623671    1.18076058747153
O          -0.34591720404474    1.55209830691755    1.72141672665492
H          -0.19858312548139    1.96684117768747    0.81198744693632
H           0.86925473381709   -1.32223768056581    0.72937769803536
O           0.97722168563154   -2.61064934511289   -0.18203455360159
H           0.46281598348469   -3.34043479664536    0.16720600565553
O           1.49874048106222    0.69050574859575   -2.15080023794461
H           2.01135684687595    1.10209141916568   -2.84858451616222
O          -0.16791159867584    2.28836002773430   -0.71825759875878
H           0.48847269832325    1.75515648076608   -1.21517916498555
H          -1.02891549793390    1.92882006717822   -0.95527873666708
O          -0.38703980563527   -1.34514958884971   -1.97587714380530
H           0.46775949444415   -2.25207333667698   -0.97136175783628
H          -0.93433768900183   -0.91362138436019   -1.29409095937708
H           0.21937439386692   -0.65384180452729   -2.28625537993654
O           3.08136953846146   -0.66539668103886   -0.50970720380700
H           2.79461439074094   -0.32410706825523    0.34481163553452
H           2.75417297630237   -1.57250544641018   -0.54641552358693
H           2.14466904290055    0.21814965593838   -1.56750846981293
N          -3.37199852598219    1.26736617853555    1.96324488395382
H          -3.03721658778714    0.76478467428873    1.15078269126464
H          -3.44307987440725    0.58421554914531    2.70808331239873
H          -2.63911877754117    1.91133999368242    2.23541566523725
