    26
        -50.47166897  Gyration_radius:  2.41867008133 Dipole_moment: 3.984
 S          -0.21615461951737    0.27673543853939   -0.85949864617217
O           0.18907953586568    1.64898864928826   -0.55224911029794
O           0.81409565897951   -0.20123033848336   -1.92954826583204
O          -0.02888109498797   -0.59786203937872    0.30498091613846
O          -1.55247452098406    0.18527478852653   -1.39422957002538
O          -1.89978339496047   -2.35857284747177   -0.79271491072788
H          -1.37075732482548   -2.34399966095095    0.01121485646815
H          -2.00381799952225   -1.41289224218733   -1.02653832508426
O           2.60218246166659   -0.53402146081702    0.43634740438374
H           2.85972680938649   -0.47083144928668   -0.48649789663344
H           1.64374943148788   -0.74670074187687    0.41527191968713
O          -0.44391267911692    0.57374453102419    2.68727817119582
H          -1.17029347086075    1.13986235571395    2.36404468762433
H          -0.36226126475115   -0.10194610076308    1.98777948144565
O          -2.05870847386295    1.86719590617738    0.92530744566659
H          -2.71274474188885    1.37763340428741    0.42067918860649
H          -1.31338780867100    1.98186733644431    0.31371808472964
O          -0.13854324145798   -2.45816600880222   -2.74856325840338
H          -0.63715531893188   -2.31610863258072   -3.55616743808642
H           0.50734100552002   -1.08643656317907   -2.28598410734502
H          -0.81161330685023   -2.61132543966778   -2.03572560920139
N           1.65381118501417    1.66857524215706    1.58672948126677
H           1.12233151831547    1.84740226766404    0.68267011442351
H           2.29741272263914    0.88010942267233    1.34651906597943
H           2.13546367996111    2.48950759595567    1.93497646076011
H           0.89529525235021    1.30319657687835    2.25019984943445
