    26
        -50.45825198  Gyration_radius:  2.58607493011 Dipole_moment: 3.181
 S           1.78936967998161    0.90528779891714   -1.12860240167968
O           1.01293697579597    1.74005858691432   -2.03759197267923
O           1.36829828387843    1.08032289140879    0.25260871714583
O           1.84185376219142   -0.47658093228285   -1.55127479809553
O           3.28241837442009    1.44601590634862   -1.17942706078932
H           3.60191580027160    1.16772972194333   -2.03278661632717
H           0.41105978481306   -1.18882741162402   -1.39736191087609
O          -0.47396262424139   -1.62738791389348   -1.31816561433358
H          -0.49014161938518   -2.30359548975541   -1.99748270515338
O          -2.23821932029875   -0.45810657254181    2.00071482202992
H          -2.90232162929134   -0.93913923275130    2.49556842601954
O           2.02006940812643   -0.93334492870426    1.87340672976050
H           2.17016732557893   -0.49764126510009    2.71403886311744
H           1.85385502833616   -0.22021928922820    1.22440582371173
O          -2.51624968582637    0.04031607700703   -0.58352661930141
H          -2.55661074635174   -0.16077687502352    0.38376709334863
H          -1.69173312979287    1.29577924129621   -0.53087981840746
H          -1.88770983643358   -0.61065153507238   -0.94823600732995
O          -0.34785406859786   -2.17630778241606    1.41479058885662
H           0.53988653168358   -1.84470295393479    1.65517367164698
H          -1.48663813181503   -1.09896179303138    1.86653600527767
H          -0.37584256410858   -2.13186670578766    0.44548854507942
N          -0.95348523251272    2.09123563114334   -0.42283734873220
H          -0.32356322985860    2.10569605201995   -1.27532263030981
H          -0.27174312724950    1.80420521161078    0.30143031982588
H          -1.37575600931288    2.99146355253574   -0.22443410180717
