    26
        -50.45825240  Gyration_radius:  2.5855866224 Dipole_moment: 3.182
 S          -1.98538684355302    0.25881475837848   -1.13289340052729
O          -2.85376511540468   -0.22090877004798   -0.06429163075631
O          -1.04461684388522    1.25817140145056   -0.65153230726259
O          -1.36461976878499   -0.81930570260012   -1.87016978691594
O          -2.91707667276861    1.02774711856385   -2.16482553384195
H          -3.39986738043417    0.33313363105916   -2.60318314015870
H          -0.27574434029686   -1.58618657535800   -0.97333018778972
O           0.38605254292583   -2.07120911457418   -0.41776368452801
H           0.39338553396279   -2.97080198884905   -0.74897460480124
O           2.42096077016072    0.50044360670067    1.75909157665332
H           3.30391116563055    0.38003016217444    2.11003271058174
O           1.11948221999538    1.57439466378370   -2.17558461272984
H           1.32917937913431    2.50341790215972   -2.06637887970184
H           0.28038476803434    1.42767067259353   -1.69420500925559
O           2.49610949017036   -0.27378761145142   -0.74361671380223
H           2.11342556460044    0.39422949410682   -1.34627713075382
H           2.48740320502099    0.29064869895758    0.78684867676886
H           1.84150019154086   -0.99002493123171   -0.71746974277260
O           0.49854480290213   -1.26565956165897    2.19527768621633
H           1.28011487787386   -0.66171850146346    2.15054049029344
H          -0.59775899133733   -0.24212257340154    2.09988303118597
H           0.46403456799418   -1.69534024031921    1.31997470528293
N          -1.32120709371887    0.53579392647388    1.85288689789865
H          -1.63766932855472    1.04823749174918    2.66847653604629
H          -2.11561094484071    0.11241835646000    1.29247772354430
H          -0.90116574636366    1.15191368635362    1.13500634112847
