    26
        -50.44598966  Gyration_radius:  2.51195326055 Dipole_moment: 4.281
 S           0.15130530633483    1.13963776349202    2.15373836503750
O          -1.06379453495352    0.65537044203128    1.53625380804312
O           0.23049572713927    1.05317831699155    3.56416111337411
O           1.32409816521164    0.35196229811113    1.48521896727405
O           0.44566601908742    2.57430381003093    1.67810352788765
H           0.20558425085706    2.57139255818208    0.70577618874141
H           1.00046552257900   -0.60014080563889    1.28885821847064
O           0.53403070305811   -1.98027477399063    0.90574731693067
H          -0.16139590913340   -2.21486686485345    1.52254567658672
O           1.13241693110773    0.33441482426638   -2.15639583397959
H           1.52990803809826    0.57494477634082   -2.99421761331923
O          -0.40739031517647    2.04142897982553   -0.67987886465651
H          -0.93164601356051    1.41087114633412   -0.16314443672155
H           0.17592736559832    1.50565418551121   -1.25134027723271
O           2.93172565819203   -0.71339492265638   -0.50370221524993
H           2.59247343314799   -1.57979381059043   -0.25724529553081
H           1.85720110471846   -0.03388744669693   -1.59335161098101
H           2.78898153733344   -0.15049187359980    0.26812651797308
O          -0.63460574312801   -1.66251395938841   -1.36679085093481
H           0.08625229101894   -1.91174107327112   -0.00161922436886
H          -1.49992121373495   -1.24915330519887   -1.12598159111568
H          -0.11651262199809   -0.97471846351260   -1.81275888972738
N          -2.85966145754287   -0.42613247181120   -0.45137093150973
H          -2.44748811450578   -0.08939147226944    0.41587053833088
H          -3.65386739708502   -1.00528483642877   -0.21005485111470
H          -3.21024872267372    0.37862698878313   -0.95654774220592
