    26
        -50.45825246  Gyration_radius:  2.58562414436 Dipole_moment: 3.182
 S          -2.22411104939106   -0.57275664857187    0.13468286389607
O          -2.08017519927324   -1.55970799487394    1.19830816157633
O          -1.55632652611285    0.67572253824291    0.46780391784171
O          -1.86382236142649   -1.09869097696159   -1.16334111049131
O          -3.76895654491184   -0.21017856346815    0.05693610152790
H          -4.16782834983374   -0.97921027780299   -0.33963382189595
H          -0.28350057432127   -1.36428645447469   -1.26444736521839
O           0.68915419249282   -1.54345343377862   -1.32511932955912
H           0.78112154742666   -2.26979990813663   -1.94398896541849
O           2.68001817477815    1.34892114546552    0.45414489019482
H           3.58019634339943    1.61972599183051    0.27076944320130
O          -0.95954442663544    2.21346289035269   -1.62614943435998
H          -1.02990876905087    3.10127844933370   -1.27144845381599
H          -1.24850458514748    1.61212116585401   -0.91042866144160
O           1.49143595452266    1.07448290478172   -1.86553240296405
H           0.63982336712798    1.55347036215272   -1.90036151158597
H           2.21735431521833    1.33899554371627   -0.42873091627096
H           1.24776165827732    0.13602251035398   -1.81944120700422
O           2.07158668132506   -1.16686521202432    1.00662345302829
H           0.88145183723563   -0.79841789878143    1.84703461429778
H           1.66112435378937   -1.42952249725982    0.16135641063146
H           2.43317007524701   -0.26134816988343    0.84225531048624
N          -0.04578005804123   -0.44045408167274    2.29610088749293
H          -0.83325749916238   -1.10940843731780    2.05767959690455
H          -0.35554071740851    0.39772931404973    1.77370600477156
H           0.04305814988578   -0.26783227113335    3.29122151418058
