    26
        -50.44312311  Gyration_radius:  2.51358287102 Dipole_moment: 5.527
 S           0.07120167354603    0.59363083628775    1.44801989482851
O          -1.11527859868840    0.29949328831207    0.67856611497121
O           0.00242863847800    0.39711206402517    2.84839653069685
O           1.22362983369017   -0.28663042381020    0.85026380518792
O           0.59020975130199    1.99020857878237    1.08781791261839
H           0.38199943398567    2.10061061992255    0.10541569282963
H           0.94546558387197   -1.24882251181014    0.76195077379457
O           0.51400517799379   -2.72042662709352    0.37370249222139
H           0.11950723371156   -3.18525339436255    1.11362763443367
O           0.50986318400668   -0.28639242311630   -2.64747195327408
H           0.71894014521690   -0.21116394513265   -3.58005135357227
O          -0.20488915107501    1.98580067224603   -1.33995972098207
H          -1.11837483868472    1.79196785525711   -1.10584118772790
H           0.11635587880497    1.19901674761660   -1.82970018880677
O          -1.33408218735829   -1.68845965266745   -1.10949893845939
H          -0.23954082507733   -2.47339792729982   -0.24470161623083
H          -1.48952492832215   -0.97298980991718   -0.46568886917598
H          -0.84478835481691   -1.27084425758884   -1.83625165519150
O           2.47944602713186   -1.49652849896180   -1.34644775670212
H           2.06992278133590   -2.27440613163366   -0.94838649366431
H           1.28599902896169   -0.72759621670619   -2.21904205282250
H           2.62252492162002   -0.88153992654487   -0.61828704831136
N          -2.05732417746589    2.51376676997302    2.50773952469860
H          -1.21406042099245    3.01389531030264    2.25347086477406
H          -2.15661523603354    1.74886647704155    1.85209955845487
H          -1.87702056556338    2.09008252659826    3.41025805531713
