    26
        -50.45825242  Gyration_radius:  2.58559462627 Dipole_moment: 3.181
 S          -1.43292414251720    0.84206329602647   -1.59056372927642
O          -0.71181207218563    0.33622664527624   -2.75255375954896
O          -1.64444947036871   -0.19805369425476   -0.59613589437693
O          -0.84554084177243    2.05017145635806   -1.05510241176981
O          -2.88685979588455    1.23729475704221   -2.09464853482088
H          -2.74864606212975    2.03369043431656   -2.59902332226141
H           0.57607655778316    1.75206875797666   -0.37113265810982
O           1.33896599378507   -1.82321259194970    2.02246129467508
H           1.89361137952794   -2.07310517776351    2.76217760716954
O           1.46062692026218    1.57414251521073    0.03854471132551
H           1.96200089079123    2.38473438447838   -0.06443962606326
O          -2.11719909821296    0.69885994581051    1.86923237979061
H          -1.97812396567409    0.45245437748286    0.93260876382024
H          -2.70372319072567    0.03417512722076    2.23418038687811
O           2.37066590926195   -0.98859965356845   -0.26742699586432
H           2.18904236625702   -0.03274206158591   -0.19446689291955
H           2.11400478728532   -1.36308060874008    0.61097000767382
H           1.20849075242796   -1.48034796271127   -1.08350131374134
O           0.52310008877114    0.62320580485707    2.48926190378220
H          -0.44587640255377    0.71177444522884    2.39348737752332
H           0.96335455509680   -0.93038022284926    2.25794034240240
H           0.89242799408451    1.07429320081122    1.71316161320946
N           0.25782623743356   -1.72184965458635   -1.56048021401053
H           0.23808534897525   -2.66248476000087   -1.93831801627481
H           0.02659427898007   -0.97852332033305   -2.28049935912812
H          -0.49971902869777   -1.55277542974759   -0.87573363008641
