    26
        -50.44357655  Gyration_radius:  2.51665929154 Dipole_moment: 5.740
 S           0.09110345979730    0.32494741856888   -2.54456857988962
O          -0.72968050048507    1.28502544463702   -1.86915936557785
O           0.64963486328687    0.67292804327388   -3.79741413070376
O           1.24317908803740   -0.09473016804703   -1.54594312190985
O          -0.66830241822665   -1.01576294667845   -2.67453684727443
H          -1.06736831528904   -1.22050557548395   -1.78441985230180
H           1.35326079076770    0.58554061900475   -0.82499470101396
O          -1.61311782378852   -1.67190582946508   -0.35076384645024
H          -2.52714001272527   -1.94916886554870   -0.42654179337899
O           1.27637151287501   -0.73197906173298    2.10014467736973
H           1.73876906375787   -1.14838126769601    2.82816293023285
O           1.77639426184882    1.39455320953422    0.51693458154128
H           2.72998141075644    1.49840997180246    0.49834327612038
H           1.57834514201340    0.71040984077817    1.19150414451431
O           1.02862949130781   -2.36341751707893    0.05652817876135
H           0.06768613803392   -2.43924214591507   -0.05127407132260
H           1.31468358604508   -1.78781595795573   -0.66732472894053
H           1.21944867695122   -1.41107765066035    1.37295860618838
O          -1.44959941726166   -0.15717853808802    1.71017817933117
H          -0.55660562083661   -0.32388972118720    2.04481350363230
H          -1.43910221663945    0.79196030286425    1.40296256350965
H          -1.58052106363656   -1.03663153693865    0.44400024150652
N          -1.18029759506048    2.30704300538792    0.75561817310468
H          -1.85468532161346    3.05597683230173    0.84624496700858
H          -1.13274785093557    2.04965721530227   -0.22948826300929
H          -0.26831928898083    2.67523487902265    0.99803529895266
