    26
        -50.44598981  Gyration_radius:  2.511765042 Dipole_moment: 4.290
 S           1.04771389760202    1.77972108132938    1.30284484377808
O          -0.31330278703778    1.31151401055921    1.44737030492734
O           1.71346844871026    2.18501619337494    2.48422422753591
O           1.83175280059394    0.62869392676512    0.59372609306766
O           1.11063278439309    2.88684451203215    0.23441867817747
H           0.47978100051152    2.58287668430574   -0.48183218918033
H           1.45444544970298   -0.26563158175262    0.92204304581211
O           0.86801759849866   -1.59625720398332    1.31435896917372
H           0.49700070763480   -1.48288884617613    2.19104628318934
O           0.11475535268448   -0.62865885815958   -2.37476640079682
H           0.12138529930590   -0.76321752749696   -3.32323634236569
O          -0.66172890427613    1.70974596276502   -1.19470270101416
H          -0.91531989599002    1.39270661571055   -0.31448337696542
H          -0.37356590629885    0.92180305204952   -1.69470986570502
O           2.44424877159885   -1.30860743714999   -1.28970045973367
H           2.24200954513062   -1.96791155577156   -0.61825519303247
H           1.00987028760313   -0.88874655347170   -2.04447142269123
H           2.64064485196669   -0.49685197932561   -0.80445753202456
O          -1.15003540556161   -1.90879466756200   -0.25463927521923
H          -0.86977378404278   -1.51454124942791   -1.09506870856115
H           0.07960645625952   -1.77755349917236    0.70281024147763
H          -1.83333934520039   -1.30288342667113    0.12433489620766
N          -2.78202849548571   -0.08638803353802    0.90008646570972
H          -3.31052570422277    0.53818437072426    0.30305406523500
H          -2.04293444199629    0.45908091474268    1.33774201171041
H          -3.40277856207009   -0.40725492470781    1.63226333125870
