    26
        -50.44364325  Gyration_radius:  2.49233414441 Dipole_moment: 5.405
 S          -0.15901801710310   -0.92802831169174    2.13113297827619
O           0.71962574319064   -1.82046820240386    1.42840799939621
O          -0.31917543852446   -1.08970255747703    3.52797437890219
O           0.30372455924579    0.53940233097565    1.81022013617639
O          -1.54945566965745   -0.94735345004461    1.44676987570500
H          -1.45101341854471   -1.28881769868443    0.50339330671033
H           1.28358808833244    0.52451877997268    1.59637677448778
O          -1.33131416774826   -1.87927542076699   -0.95002034663439
H          -1.47271025661521   -2.82507383364464   -0.87444688287753
O           1.79488811862040    1.07664834632277   -1.42853849528478
H           2.05600709919210    1.53569371786106   -2.22729252690083
O           2.75662852516259    0.72274522618559    1.05431202276295
H           2.57840744124869    0.82133957317562    0.09521028188991
H           3.12075795975770    1.55657234455296    1.35903874890359
O           1.22561011858838   -1.62288736456318   -1.20243889532014
H          -0.35376485221399   -1.77217213056249   -1.16199898793428
H           1.49572646795553   -0.70242784561369   -1.35756189449496
H           1.31901959649271   -1.77892628074539   -0.24456377095202
O          -0.32684759381286    2.16107052660494   -0.39788714787043
H          -1.17316404256798    1.75849539158501   -0.71725348576586
H          -0.23740757009396    1.84717656178905    0.51167368557139
H           0.95650196432413    1.51978464131735   -1.10192833588843
N          -2.60269488568027    0.83016223530386   -0.95129955867375
H          -3.37672123814422    1.17434866217452   -1.50513203229614
H          -2.94174107283202    0.65263652231771   -0.01266727737189
H          -2.31545746864022   -0.06546178401370   -1.33148055072240
