    26
        -50.45019010  Gyration_radius:  2.49738216681 Dipole_moment: 5.273
 S           0.89036102439639    1.29825596172432    1.83371400014694
O           1.81701654108740    1.41142683893258    0.72978551165097
O           0.99018992693038    2.25847185473454    2.86664614831299
O          -0.54645365157858    1.28519648822392    1.21943920587698
O           0.98045425268142   -0.11400041192800    2.44496194721625
H           0.98005664622128   -0.81741158495635    1.72810819438773
H          -0.46862740843737    1.73920563181609    0.31067892684454
O           0.94361518142580   -1.99163089910784    0.67813595977206
H           0.88899516923619   -2.82715685682408    1.14474447800733
O           0.19498037949315    0.04030125516250   -2.46622505043432
H           0.34944775408048   -0.00244201331279   -3.41061297190645
O          -0.02678493668575    2.30968265727867   -1.03293372242779
H           0.89653527134440    2.37457706334310   -0.74998326875705
H          -0.06273019766159    1.54808686494477   -1.65244008650506
O           2.37590709880784   -0.45150357029178   -1.11812681848727
H           1.06688497877430   -0.17712322670911   -2.02566708438124
H           2.36298349381071    0.28646912614009   -0.47959544742691
H           2.14666737456702   -1.22885198801587   -0.58988040708464
O          -1.11773733092208   -1.78105377831929   -0.83089300359277
H          -1.83186013156611   -1.31754994814050   -0.32767278646008
H          -0.81789810020896   -1.15624418517220   -1.51134936537770
H           0.11160062195808   -1.93607418033469    0.09653327067269
N          -2.90563338941206   -0.36918659691836    0.62361929508460
H          -3.57799311576662    0.18108651141114    0.10423620977475
H          -2.23906398047405    0.27359358972529    1.04215051827485
H          -3.40091345211621   -0.83612461342472    1.37262636682503
