    26
        -50.46439133  Gyration_radius:  2.39573746877 Dipole_moment: 3.895
 S          -0.06681224743276    0.66955797985055    1.67508832917546
O           0.88373747467446    1.09987674090607    0.65090434738530
O          -0.67090940081377    1.79096313185202    2.35397809320907
O          -1.10863635503929   -0.19226416569318    1.07465614195775
O           0.70716922888095   -0.21579977506955    2.68979259869065
H           1.04147744416186   -0.98502797367553    2.15945067243888
H          -2.11537325767263    0.89672428366478    0.48943439362545
O           1.67515238726705   -2.13530720178284    1.15034238181594
H           2.45898147382926   -2.48922045977314    1.57447249492367
O           0.09248377252559   -0.61584836047739   -2.48241344864654
H          -0.09587465101694   -1.02681497962067   -3.32664714512457
O          -0.35390917037134    1.93634098901086   -1.51629147686781
H           0.26169226066162    1.78420890201617   -0.76428478275706
H          -0.29663385985843    1.10450066090608   -2.02156486812942
O           2.35184268423235   -0.54443982422169   -0.79561501350707
H           1.75974215976120   -0.61325768529153   -1.56049414436621
H           1.97713499404949    0.19387172039600   -0.27197751980555
H           1.99971804390799   -1.59104521928953    0.37299144663281
O          -0.64228701018333   -2.22505035764266   -0.53316233340947
H          -0.92258030337207   -1.52284192879115    0.09231456647323
H          -0.23508154067747   -1.24467430866581   -1.78480575502754
H           0.11285417894138   -2.63388410997446   -0.09547433882364
N          -2.24030588916356    1.92500789134169    0.25395636989081
H          -1.59585809899275    2.06928935525476   -0.60235712038946
H          -1.77823283534096    2.33715905257778    1.09427057869132
H          -3.19949148289998    2.22797563226740    0.12343552193585
