    26
        -50.44639638  Gyration_radius:  2.51457998562 Dipole_moment: 3.605
 S           1.17717170498603    1.77639717037900   -0.98516282912206
O          -0.03763545764683    2.54228986333709   -1.04816591157553
O           2.32183748007370    2.24920134650447   -1.66712240824173
O           1.55714761790695    1.54491195197216    0.50026706591291
O           0.84789599037923    0.33001457077989   -1.49104665052239
H          -0.13899629666523    0.18749307003552   -1.54226314092601
H           0.75042052182246    1.25147614737617    1.02216584763901
O          -0.43634772508720    0.67913744309492    1.87927455181434
H          -0.28480554947934    0.89397341182995    2.80127881536803
O          -1.72197185074306   -0.03299105558495   -1.64759161223163
H          -2.00791085083776    0.31306917852505   -2.49493608038765
O          -1.54512476422660   -2.50362599298646   -0.39226615811977
H          -2.44104954018682   -2.72209427477348   -0.13082751462589
H          -1.59852989061834   -1.69755921229256   -0.92971855548586
O          -2.27883380145844    1.73513054911309    0.13754388038737
H          -1.85162588908609    1.37480738438265    0.93121398475896
H          -1.60206261872109    2.31477569915568   -0.26163708391758
H          -2.05749462609162    0.61516011767111   -0.94959101102443
O           0.15509201157604   -1.77346488766679    1.61333942128712
H          -0.41993220629717   -2.15508883505705    0.92271650858773
H           1.05539504225823   -1.71789669883660    1.20755455956951
H          -0.24932346735809   -0.32742534919980    1.79399204596870
N           2.50358490643326   -1.32486735241824    0.34378400504351
H           2.13377119909919   -0.98925902708633   -0.53982687751323
H           3.20484715483420   -2.02727996959329    0.14474121551434
H           2.96448090513338   -0.53628524865016    0.78228393178676
