    26
        -50.44639631  Gyration_radius:  2.51473150182 Dipole_moment: 3.610
 S          -0.15964080372037   -1.13457511879106   -2.05022142227155
O           1.27469976894870   -1.16738006363350   -2.13933788641344
O          -0.92551394639633   -1.51219211703146   -3.17704039607219
O          -0.61472534229877   -1.99387576167885   -0.84238200505434
O          -0.57094854357963    0.31588151615089   -1.62184037563015
H           0.22266258342333    0.83004969156294   -1.30106160042815
H          -0.05530558203078   -1.78085144682288   -0.03554761553975
O           0.69853570477018   -1.42069378574456    1.29579131334965
H           0.66367233147614   -2.17558194070501    1.88584123174620
O           1.49970406725088    1.66305191253161   -0.81099309178909
H           1.92327755246120    2.02898434974565   -1.58957734801182
O           0.13497395853420    2.60563142205722    1.41619409669034
H           0.57782099395721    2.37159790145537    0.58518093133419
H           0.80883517969406    2.95821158074717    1.99965981873429
O           2.83396940809137   -0.42457109510311   -0.11499931716484
H           2.10321719317284    0.92301536372910   -0.48222275324491
H           2.28013472242399   -0.80409302306353    0.58607249728825
H           2.52688396898273   -0.86238241434496   -0.93190587267730
O          -1.00602078806097    0.24352313709959    2.16789405702134
H          -0.68458699475884    1.14466365123489    1.97329083263607
H          -1.76372181657476    0.09372912983959    1.55006846615910
H           0.04752678693488   -0.73006280924468    1.68917285237121
N          -2.83305229292797   -0.23659733032567    0.22888241025287
H          -2.85778233147986   -1.23254566962717    0.04455021382807
H          -2.33960062174886    0.18960713706868   -0.54892698275232
H          -3.78501514646894    0.10745579290998    0.22345797561924
