    26
        -50.46439124  Gyration_radius:  2.39573626868 Dipole_moment: 3.896
 S           0.22982275046609    0.08095803589482    1.78887872658186
O           0.88053559081658    0.97414676030736    0.83155987594802
O          -0.32896511971407    0.80428107947358    2.90596210944575
O          -0.81847347885710   -0.71490669632737    1.11323662387439
O           1.29858898486390   -0.92990510123418    2.28727055661331
H           1.58957826491040   -1.41998301630004    1.47495185473615
H          -2.04011096879303    0.30852295422827    1.12096404506145
O           2.10745253079799   -2.06052076510438    0.03808020247489
H           2.99882064447018   -2.38700729405581    0.17372544496808
O          -0.38743280322803    0.22982841828697   -2.51928368434078
H          -0.71027539966014    0.08173832578409   -3.40868857406964
O          -0.88487400543878    2.22355130090486   -0.66883640493959
H          -0.10669116805770    1.95162066298327   -0.13208791895096
H          -0.84984799244463    1.61861129647703   -1.43262537078353
O           2.16492059320786    0.15834445728799   -1.32160375673514
H           1.43064911234692    0.23283981027281   -1.95055899588483
H           1.83641366041622    0.61444966171648   -0.51926672347724
H           2.19280808921658   -1.24963980665746   -0.54591400040386
O          -0.49880846067097   -2.01748467128963   -1.15308031955982
H          -0.70949424565815   -1.61077897898008   -0.28528635892341
H          -0.48425389303278   -0.63515658308197   -2.03782246289509
H           0.37359785812720   -2.40465596302011   -1.01907070896719
N          -2.32519533916362    1.31943008206987    1.28060521336042
H          -3.31692576415322    1.47379410252840    1.42730437670178
H          -1.90344554196854    1.83904156559101    0.43115256418659
H          -1.73839390877487    1.51888036227548    2.12043367598271
