    26
        -50.44639638  Gyration_radius:  2.51496362673 Dipole_moment: 3.607
 S           0.48565324364266   -2.20229757426120    0.65849503268072
O          -0.76253526477931   -2.26059705129195    1.36906374317938
O           1.42934622250319   -3.23853673195074    0.84411984708302
O           0.20161088174856   -2.06927907390324   -0.86005419355368
O           1.16263806423482   -0.83280383743254    1.00870937378717
H           0.51419004983677   -0.21993239930895    1.45688799604682
H          -0.50241667081317   -1.37079769782687   -1.02070770606020
O          -1.51198889235179   -0.21494333836754   -1.36018993272727
H          -1.92329418795803   -0.40124854920395   -2.20597154737973
O          -0.51893493979391    0.75359180949829    2.19872122079978
H          -0.51024076920075    0.52993569356611    3.13115398187204
O           0.21339320526932    2.90042449344856    0.59701759460811
H          -0.47537949462929    3.55588303047843    0.71834216964456
H           0.03658643594759    2.18722772422286    1.23072667985745
O           0.22348863510078    1.58403805142060   -1.79331584183015
H           1.05829305804057    1.05392267804996   -1.81432120274888
H          -0.85242904004694    0.55308867101209   -1.53497276248213
H           0.28986323927401    2.14496106079862   -0.99697304950974
O          -2.59952444462122   -0.34714741169978    1.15836763184391
H          -1.40002895255175    0.41905606140568    1.83582797835154
H          -2.47103823744241   -0.18513849938392    0.20995039264516
H          -2.18648215874565   -1.21790821076541    1.31495659952462
N           2.35271954839890   -0.07747987955612   -1.61062063606778
H           3.30524446679480    0.16387074599197   -1.85394476458368
H           2.12323716927892   -0.95138071100016   -2.06909846767956
H           2.31802883286002   -0.25650904390906   -0.61217014727258
