    26
        -50.45807533  Gyration_radius:  2.42069235229 Dipole_moment: 7.661
 S           0.45377549726130    1.39777622572600    1.63673840640930
O           1.54826587962342    1.43758795217537    0.67765729344622
O           0.59681339223240    2.22148262069715    2.78613514697913
O          -0.85530801831821    1.83498770640449    0.84063483665589
O           0.13792009092407   -0.01988175303507    1.98806052578732
H           0.71478260553831   -1.33993760384796    1.24843167906706
H          -0.52104070154381    2.23894561540661   -0.00587001948681
O           0.93755485297002   -2.16808906621522    0.74867571883676
H           1.28445783594382   -2.78433271816261    1.39448644047965
O           0.06834553105125   -0.03272974933662   -2.42230968656751
H           0.24278831677949   -0.17784992262373   -3.35306606054628
O           0.26716208317401    2.53242608454532   -1.36349701306419
H           1.06863713976073    2.35127558897505   -0.84227723612252
H           0.10707941448880    1.72548746967629   -1.88494414460838
O           2.19169275655446   -0.47842924068278   -1.01791592381729
H           0.93579692597252   -0.21288625131524   -1.94181005929329
H           2.11056215726851    0.26438939522410   -0.37901205491799
H           1.97214476453907   -1.26612128764493   -0.49643795003913
O          -1.22853837870585   -1.86340332822609   -0.91240498775950
H          -1.93249565173051   -1.06320998398560    0.20475239756227
H          -0.87134825613938   -1.20879363381652   -1.54989705771614
H          -0.45019307642557   -2.19389034999311   -0.42811601451696
N          -2.18647842409035   -0.46092455927848    1.06295634622489
H          -2.48798648518978    0.46869145038666    0.77206606260701
H          -1.23243064781182   -0.29293890062416    1.57618765547999
H          -2.87195960412766   -0.90963175042893    1.66077568892445
