    26
        -50.44327680  Gyration_radius:  2.61119984273 Dipole_moment: 5.303
 S          -0.53855174328908    2.75582526304233   -0.58381517515853
O          -0.32048760209601    1.99884015744795   -1.79153244050619
O          -1.29587503895241    3.94488678316599   -0.68485547939331
O          -1.18906044864920    1.77091175821639    0.45297095287579
O           0.81777685429615    3.06616405981657    0.08710784391340
H           1.29769814476536    2.20430335463830    0.24877281880643
H          -1.47258774317278    0.94275814061723   -0.04363442435796
O          -1.74930712196491   -0.32074019445969   -0.93987962972871
H          -2.11727203818300    0.04690095397409   -1.74743177023758
O           1.94686851270931    0.79835427340387    0.63225709882476
H           2.78938391849733    0.92329941555013    1.07235183574296
O           0.74126134389448   -3.08633642242372   -0.98375545291547
H           1.37595025498320   -3.63596135358081   -1.44494078870969
H           0.82078708968289   -2.19716079843028   -1.35900130397543
O           0.17670897491082    0.11886818522916    2.33547568742726
H          -0.18793275321654   -0.76327694293005    2.02221385975998
H           1.29149955050297    0.48772600734221    1.35019750283243
H          -0.49917760191537    0.77108362605424    2.11922645295093
O           0.86488461439367   -0.36377170989614   -1.60077937359044
H          -0.81681683841954   -0.55520758701792   -1.15683252103403
H           0.56903681787227    0.50313943990710   -1.94127609269492
H           1.40662553446305   -0.13702660363734   -0.82744757473087
N          -0.85643964544340   -2.10785785802488    1.33171235529986
H          -1.64415958411343   -1.79037919411536    0.77791493170477
H          -1.19415374857691   -2.80455434078344    1.98342720327563
H          -0.21665972302264   -2.57078844313656    0.69155349361062
