    26
        -50.46439129  Gyration_radius:  2.39572960129 Dipole_moment: 3.896
 S          -0.94935597220510    0.21134310878163    1.52082259361209
O          -0.39297413999009   -1.06174157668231    1.06551049324140
O          -0.68586118563662    0.44382673483343    2.92080748792781
O          -0.41546067350202    1.32313941780935    0.70378971168370
O          -2.48076903248222    0.17154025920906    1.26457644377125
H          -2.57590325030960    0.06599407475728    0.28246054214209
H           0.98402788028671    1.59212813685532    1.41885085273004
O           1.58226420133934   -0.46608320620164   -1.95691733854329
H           2.12694638311530   -0.34919013119494   -2.73590224801856
O          -2.61218320021751   -0.26477079548928   -1.34000155032816
H          -3.45156719592619   -0.68867175167878   -1.52788380113819
O           2.20886119872185   -0.89615297271451    0.70177596574120
H           2.19013401718113   -0.72854236198966   -0.25851057311038
H           1.28589151117951   -1.17362806229459    0.89851223598051
O          -0.32031026809115    1.35283277625220   -1.92768674324868
H          -0.35355199042052    1.46434002936406   -0.95331979397932
H           0.90629761157555    0.26337895344340   -1.97493747511389
H          -1.18226832166528    0.98060383575201   -2.14544031740057
O          -0.69429797961381   -2.02449041130666   -1.37040120393963
H          -1.91228219402543   -0.97678999357648   -1.43466639992303
H           0.12707907976500   -1.67865713645727   -1.75256249483926
H          -0.59014884688949   -1.87211258053405   -0.40831300900283
N           1.69142905347707    1.20945808155898    2.11275214649063
H           2.36081914629013    1.88361616971864    2.46817709474318
H           2.12546638219785    0.36599396364472    1.59344935404019
H           1.02771780579519    0.85263544812737    2.83505804648876
