    26
        -50.44327696  Gyration_radius:  2.61078949782 Dipole_moment: 5.299
 S          -1.43199596418926   -1.41670334637141    2.04029706523518
O          -1.45264845025526   -2.13771836100884    0.79178314041665
O          -1.61753413883730   -2.15993233816894    3.22805804488328
O          -0.07144100297059   -0.63235669631871    2.08411750731966
O          -2.45758405100542   -0.26261986406213    1.99117588072038
H          -2.24793789432884    0.31639536649386    1.20373906719261
H           0.51419440451693   -0.98890849694331    1.34742101491614
O          -1.77445548512490    1.29517929273579    0.03616897938703
H          -2.36383540067881    2.04798309469094   -0.03468902900940
O           1.25415140549636   -1.57193563302626    0.08678682200818
H           1.09054512416051   -2.51689558759861    0.14135562780933
O           1.06868933483579    0.28653794805090   -3.13224340936577
H           0.36766117502701   -0.20256673544225   -2.67716267312195
H           0.80568383830066    0.35078739463180   -4.05100289134290
O          -0.84739069624001   -0.82585246188066   -1.42977493857685
H          -1.24496226905732   -1.46492968234277   -0.80645530930452
H          -1.18618615904730    0.03313869130980   -1.12916267777510
H           0.64330560130833   -1.23755590086184   -0.61082159805699
O           0.41214902464349    2.01246694631528    1.13175645000108
H           1.14023553156247    1.78280086547869    0.47870826860339
H          -0.90571924234435    1.64810060171682    0.43893538958112
H           0.46168248204373    1.34194578744717    1.82234865467905
N           2.27755588786746    1.19834143938419   -0.56817670690317
H           3.12787153833873    1.74369687164662   -0.62938894647372
H           1.91349683495867    1.09016264584383   -1.51112784541686
H           2.52446861105607    0.27043816822725   -0.24264589753379
