    26
        -50.44327693  Gyration_radius:  2.61041919217 Dipole_moment: 5.297
 S           0.31261232871674    2.73720151133705    0.79043425214367
O          -0.24171269310531    1.94589395032176    1.86081085286664
O           0.99480275448240    3.92458710208089    1.14019023126930
O           1.24857518019824    1.78330115431133   -0.03562861098863
O          -0.79069793577368    3.06335408199382   -0.24013690173561
H          -1.19241620612896    2.20527696222140   -0.55932669341974
H           1.38342609731892    0.94261546022396    0.50086881097600
O          -1.68499378882146    0.80994238548939   -1.15441612717532
H          -2.36277615400821    0.94546948616061   -1.81878378196925
O           1.39845540732634   -0.34405739400525    1.40711550973166
H           1.50727730026859    0.00333948922598    2.29604474161928
O          -0.96231500655159   -3.11412974764490    0.63430292671688
H          -1.15941780383817   -2.23729583682058    0.99502600597753
H          -1.69844890939279   -3.67927984157334    0.87146484318127
O          -1.29432358602729   -0.41265372197863    1.26656134155272
H          -1.12047717731477    0.44475661102541    1.70201399072447
H          -1.58728182630105   -0.16488484259589    0.37451692916325
H           0.44628036395968   -0.58787299192121    1.33336232942555
O           0.51422222501531    0.18637246623073   -2.28165962608854
H           1.08888375236908    0.83472022790230   -1.85931608454154
H           0.78226103511110   -0.70284090151061   -1.89860519524316
H          -0.84455985467448    0.52207819602973   -1.65671014496629
N           1.23678831106956   -2.06275344423121   -1.07681814969316
H           1.82085092136765   -1.75728034078080   -0.30640052376336
H           1.76210298526947   -2.73790299647817   -1.61759542156762
H           0.44288226962078   -2.54795700557043   -0.66731551359680
