    26
        -50.46439119  Gyration_radius:  2.39573193346 Dipole_moment: 3.897
 S           0.23098132509993   -1.76214761533020   -0.31800787071163
O          -0.12446012299701   -1.19764054214423    0.98305153244304
O          -0.58665579550844   -2.90402252897069   -0.65078574948637
O           0.12439902106881   -0.72700274382765   -1.36967040159003
O           1.72692622690344   -2.17558165332011   -0.25606611327917
H           2.22099760093562   -1.33331599583664   -0.07946024111244
H          -1.43579759778970   -0.76954043390831   -1.69081009047506
O          -0.62998100664362    2.40607463322261    0.60037290694780
H          -0.79394853772258    3.34755546057959    0.53812048930031
O           2.92301921294058    0.09880648326363    0.36700080180903
H           3.74966018438900   -0.11077666745901    0.80546542580492
O          -2.32729606763679    0.23601253530608    0.83895340654547
H          -1.90234722502136    1.10789327339884    0.74006657855438
H          -1.58115737482438   -0.34783116381260    1.10354728446734
O           1.13814639664169    0.81869585402427    2.11941356954639
H           0.64561101206267    0.00134979010671    1.89779426275590
H           2.30430427464549    0.43287058238103    1.08214132596361
H           0.56433530042026    1.53204061628857    1.79960886930733
O           1.14297017275178    1.69652749905585   -1.21140873637683
H           0.01461815443203    2.18494425597636   -0.12417414914120
H           2.00390434742508    1.50694191413329   -0.82178880863740
H           0.76803439605931    0.80807994875015   -1.39276193933760
N          -2.38141255917948   -1.12414000521319   -1.36088366986249
H          -2.58461247400299   -0.52551449662058   -0.48344558155737
H          -2.09463880252378   -2.07998043750396   -1.05546446962840
H          -3.11560006192776   -1.12029853252005   -2.06080862225879
