    26
        -50.46439122  Gyration_radius:  2.39573730294 Dipole_moment: 3.896
 S          -1.69484578710647   -0.49574275300926   -0.37570384608241
O          -1.19779804840474   -0.20666329828918    0.96858672688526
O          -2.96372477592835    0.14365722569365   -0.62939688596270
O          -0.69777329607237   -0.08362630585547   -1.38805227199326
O          -1.83861252849911   -2.03731484925106   -0.50024231275951
H          -0.92210134328723   -2.39402877107439   -0.36817989789382
H          -1.01502203421216    1.47244610173853   -1.52179818905974
O           0.61253927477857   -2.88314834553379    0.01782161468199
H           0.55292090399599   -3.78049847099154    0.35057936825176
O           2.25948514963591    0.96438790876271    0.71540346643658
H           3.15726171898301    1.29687528701381    0.69056996313327
O          -0.17473943530454    2.21420765644724    1.11444405556147
H           0.75803484218530    1.96351995004360    0.98166327749351
H          -0.61735392244745    1.35100262009861    1.27735989606239
O           1.01246728350252   -1.22445425584119    1.98351146468162
H           0.12059500088676   -0.85949388449292    1.80714498023106
H           0.83466746491553   -2.30643124448328    0.80769671297515
H           1.61279908707313   -0.50034992009421    1.74759274112633
O           1.86755333019102   -0.67382867025333   -1.30747911788287
H           2.15333144952302    0.38288139570625   -0.08457187433426
H           1.83349693680439   -1.59526228249780   -1.02684712257794
H           0.92647650143997   -0.44104869504139   -1.45917763460273
N          -1.52964012469167    2.29438405727947   -1.08789880469766
H          -1.65732149494083    3.09695822394732   -1.69495404628022
H          -0.97359270178050    2.49184468480868   -0.18163242747025
H          -2.41910345124465    1.80972664516702   -0.83643984595165
