    26
        -50.44681121  Gyration_radius:  2.52059782858 Dipole_moment: 2.734
 S          -1.10534722993411    1.40898024906745    0.97429939471771
O          -0.12878337526932    2.15703171439328    0.23219592452891
O          -2.05057530144683    2.10987760450722    1.75878437437652
O          -1.87111385315995    0.50184462476186   -0.03648913139507
O          -0.37210403312349    0.38876903093782    1.89047452240852
H           0.42748423972217   -0.00086124683079    1.43169978766258
H          -1.25586339302603    0.26754135421132   -0.79646523591059
O           1.59871538947842   -0.86289007959355    0.77934386238421
H           2.10456672042653   -1.32157845924868    1.45203709205190
O          -0.35740985850941   -0.17016313287362   -1.99866880655090
H          -0.64769910520688    0.26166632492305   -2.80344190812921
O           2.20467334301021    3.00193968693159   -0.75852479499814
H           1.38597964397988    2.79005554597558   -0.27429831559710
H           2.01003910865425    3.78111652783968   -1.28150390482143
O           2.11901158603977    0.44698504053413   -1.62029685147648
H           0.61226182948026    0.09212679050627   -1.87525581564477
H           2.24522952276158    1.39704524507112   -1.41842190537954
H           2.23940564212959   -0.00507221102950   -0.77285527097494
O          -0.03697264561490   -2.47841512832015   -0.37324767372116
H           1.03266808039867   -1.56198815480886    0.31568742020756
H          -0.81398789490370   -2.44610319152115    0.23924262711815
H          -0.27752302231424   -1.94856941941726   -1.14403127840796
N          -2.07841556623043   -2.07295247783937    1.35747612567446
H          -2.51250657486304   -1.27490671723642    0.90472124905264
H          -1.66659738245160   -1.72711052665498    2.21649988553047
H          -2.80513585003100   -2.73436897429841    1.60103861731042
