    26
        -50.47103785  Gyration_radius:  2.51752922859 Dipole_moment: 3.748
 S          -1.16306215108364    0.20377671793591    0.13748759593385
O          -2.45492870425125    0.80023113442953    0.33725562137777
O          -0.11511128729650    1.37019288543326   -0.08705312179511
O          -0.67095233973579   -0.53610411445213    1.30673694468335
O          -1.04277378742177   -0.60429327061527   -1.06832758901766
O           0.29648927981805   -2.85421809931538   -1.63627407642076
H           0.69665003249717   -2.52909831110371   -2.44957026982477
H          -0.43349715776711   -2.22996312275932   -1.45611807564608
O           0.80202098508438   -0.21998441085999   -2.90626057542081
H           0.06795063301403   -0.29318370861619   -2.25140898426596
H           0.51682937376179    0.42957336607814   -3.54993939025235
O           2.39186741389312    0.48323864940911   -0.84967992767361
H           1.71550498353089    1.08341837569235   -0.49981600004522
H           2.05562230846797    0.24493410557513   -1.73796574119136
O          -2.22018900647121    0.99685501740211    2.94481201089256
H          -2.60454238845988    0.93618806025945    2.04621824309507
H          -1.62902388748566    0.23560764576183    2.97732875913235
O          -0.68508449991560    2.86720301302136    1.92456165409648
H          -1.22224277056305    2.23172130673375    2.47067045099508
H          -0.28522742576149    1.99100568776007    0.67999578453500
H          -1.30174420717431    3.54355122351246    1.63557567666236
N           1.48253964396217   -1.64877408566773    0.42236632305795
H           2.00835066090670   -0.84162350229441   -0.02427680456397
H           1.14459352207034   -2.28783011163853   -0.34457470967486
H           2.04784439476711   -2.14124618378619    1.10507624094685
H           0.60211636151550   -1.23117827796929    0.87317996035659
