    26
        -50.45002646  Gyration_radius:  2.51485178773 Dipole_moment: 6.072
 S           1.40711450793151   -1.77880319582267    1.22106095471083
O           1.40428997772359   -1.37788124700659   -0.28152230379686
O           2.04511335325289   -3.02728947770272    1.41622724759200
O           2.27424355380841   -0.65177215380324    1.83386684788987
O           0.05962505546485   -1.64405133097000    1.72274729821999
H          -1.47617958396048   -1.42110811053420    1.28216061741857
H           1.74779719549360    0.17938029168813    1.68877173621756
O          -2.35859897440571   -1.26518860109944    0.86874880800177
H          -2.97370213013250   -1.84167900105941    1.32390242530848
O          -1.22787437389537    1.15449166823856   -2.03919926509791
H          -2.00028103737757    1.39673936454922   -2.55137728552864
O           0.95605388365379    1.50775619359677    1.23881023778830
H           1.22194571687545    1.52715252312135    0.25283728869303
H           1.33907318095637    2.28609197528339    1.64761113053852
O          -1.74285819254646    1.41265031983903    0.52727921787906
H          -2.10751644959889    0.53825201014885    0.73927530457640
H          -0.86423375980526    1.43926275155033    0.93955455945418
H          -1.45107208259922    1.34829828962408   -1.08836377771221
O          -0.85913582638301   -1.45593207856538   -1.41125068017581
H          -1.51827768403081   -1.50586329337291   -0.69500671023987
H          -0.94455244739865   -0.54976351684048   -1.77793356364345
H           0.48435057359651   -1.47912546934646   -0.72987832498735
N           1.61199127569610    1.38682862046687   -1.27880288623178
H           0.74654253784909    1.44341307971672   -1.80807311119578
H           1.91825820664466    0.41941433402201   -1.30270086478674
H           2.30788354322654    1.95872606426606   -1.73874488085794
