    26
        -50.47356252  Gyration_radius:  2.43500352779 Dipole_moment: 2.299
 S           2.13988938147641   -0.16296879847270   -0.39185252687505
O           2.15158771533698   -0.49938658299319   -1.80126678550699
O           1.39739825847583    1.06883016320082   -0.13647232494196
O           1.71527152155827   -1.24290627921114    0.46718166622805
O           3.64813461703627    0.14474359338206   -0.00860107691966
H           3.94455287423371    0.59833980353122   -0.79030733280611
H           0.61506814883321   -1.25013330870552    1.60318466387867
O          -0.11380929606602   -1.25350360131411    2.27895089493478
H           0.12879833229218   -1.92110549745223    2.92181811078637
O          -0.30259473847946   -1.29207550777550   -1.95979028899361
H          -0.31890074087667   -2.07187565852612   -2.51794394752549
O          -0.56481951711173    1.49043540762920   -1.87232444549937
H          -0.62017817310826    0.60006963343745   -2.24783355604225
H           0.25349917284995    1.47054347579240   -1.33049207292342
O          -0.14003628270346    1.48029313899836    1.99438519075023
H           0.54147363251190    1.44599052017276    1.28930664474581
H           0.65109686728970   -1.03918522684840   -1.87979009081502
H          -0.14823843954843    0.58260256831022    2.36638465451720
O          -1.94655830995793   -1.37394172770714    0.24810775996211
H          -2.22563350523647    0.19684924139719    0.26878829275055
H          -1.36190360692591   -1.45706064342222   -0.52847154494926
H          -1.36701589214507   -1.47810427294218    1.02558694940835
N          -2.09721278068788    1.25244902572827    0.25781020575362
H          -1.60283675323212    1.48130291720932   -0.65448804489579
H          -1.40560011006749    1.47671352952682    1.03863344960437
H          -2.97143236575667    1.75308409702878    0.35949554535599
