    26
        -50.47356263  Gyration_radius:  2.43507358752 Dipole_moment: 2.301
 S           1.16033226287249   -1.83652785678647    0.20047393947132
O           2.34855148305003   -1.51211889345262   -0.56306041083767
O           0.90677413362678   -0.85224242253630    1.24960304785214
O          -0.00970231726957   -2.08384293324878   -0.60845105194999
O           1.48379664115494   -3.19942784557989    0.94481844918021
H           2.39647861414089   -3.06637501383295    1.17696299938517
H          -1.45952760137005   -1.46328250638202   -0.49102545442526
O           1.34730733907812    0.46541296880206   -1.89093288123537
H           1.67144185445089    0.40305462030427   -2.79141956735306
O          -2.35133792708294   -1.02768869113815   -0.43751785611848
H          -2.97501406647290   -1.66545415232186   -0.78701349617006
O           1.77197000053694    1.58055969387162    0.63718093023081
H           1.89022880270166    1.45650708395070   -0.31548540795323
H           1.60788226089425    0.67441731882049    0.97713649636326
O          -1.51178238495860   -0.01797235223074    1.97668148068268
H          -0.62077876012341   -0.41446664982402    1.86891426714746
H           1.70801642144478   -0.32709725982116   -1.42011192610125
H          -2.04288035849927   -0.42204041399371    1.27025292654224
O          -1.29192972116717    1.20461125522651   -1.61813605862866
H          -1.77833971314538    0.40920901124424   -1.33189598106974
H          -1.07751775015362    1.96153634095723   -0.22990807184728
H          -0.38600160152874    0.90158910480312   -1.81609506436707
N          -0.78649477572552    2.19678839907386    0.76547099560975
H           0.27294803203682    2.11864538711182    0.79099240947089
H          -1.16055507503023    1.40859696407398    1.37965621436015
H          -1.11386578339746    3.10760885289312    1.06290907182948
