    26
        -50.44681130  Gyration_radius:  2.52065065749 Dipole_moment: 2.736
 S          -0.21582427939491    0.12071063102427   -2.02397652811153
O           0.93172928379759   -0.72059222336834   -1.82599253169480
O          -0.64368138053985    0.39235104933049   -3.34430482103757
O          -1.40387003969605   -0.50958121879814   -1.23506731350420
O           0.01928543644291    1.47612202021248   -1.29889721008701
H           0.49578613038444    1.34318906525787   -0.42884408902933
H          -1.04159024808011   -1.00379589600096   -0.43794192428115
O          -0.56513848586308   -1.76801274724814    0.84023397850451
H          -0.68328656808409   -2.71205688183471    0.72529110414393
O           1.05675515242092    1.28879399194371    1.06188365737222
H           1.33962942368428    2.15633439382616    1.35532645371500
O           3.29254960345870   -1.63457825694357   -0.96976190923943
H           3.44716764836800   -2.45945622574075   -1.43255314436715
H           2.51639947425729   -1.22726279293048   -1.39547862233588
O           1.92954730944090   -1.33902957226741    1.33968964587534
H           1.89253697358237   -0.37233440735468    1.37338685701229
H           0.41938305635668   -1.63100633853062    1.03051969506204
H           2.50872114178512   -1.54186011060832    0.57634727015462
O          -1.24038616222749    0.70692382813950    2.06072078204214
H          -1.85356432723615    1.13167517855307    1.40986025742283
H          -1.26547191648792   -0.24100332438952    1.87756397161516
H           0.18965125421410    1.08843763713911    1.54381394588360
N          -2.68857834574948    1.79602702163758    0.05006620931347
H          -3.61811905368617    2.19096941311718    0.11950732630548
H          -2.72942467392680    0.99212227343096   -0.56827034051820
H          -2.09020640724637    2.47691348240630   -0.40312273022179
