    26
        -50.45002654  Gyration_radius:  2.51423564746 Dipole_moment: 6.065
 S          -1.35590372843405   -0.62875237678820    2.09510463914292
O          -1.71290490798374   -0.81462855845359    0.59295818770457
O          -2.18291084662185   -1.42833724499724    2.92008405679943
O           0.07161426070672   -0.79329070293294    2.23963132096875
O          -1.70146918454178    0.86585885802494    2.30608534825096
H          -1.05791361116157    1.35666285127947    1.72810453173756
H           1.40604021458957   -1.29161830161356    1.48255484002762
O           0.79273787265195   -0.13888392486918   -2.51945972724419
H           1.40778846724370   -0.37199649211469   -3.21583274629089
O           2.13053757706100   -1.60986941911791    0.89290454493669
H           2.69189342103068   -2.16642790720752    1.43414163288114
O          -0.14105248867184    2.07935927395922    0.61881581682429
H          -0.67979924861310    1.83966312033792   -0.21506946123732
H          -0.18123347469029    3.03281210379321    0.71382868882583
O           0.01200796191522   -2.06200179217482   -0.77608529344433
H           0.19863884704902   -1.43304724732888   -1.50566142521796
H           0.82462594823780   -2.07888028385752   -0.23791661224349
H          -1.02553088582329   -1.37812002684608    0.07579809362436
O           2.10791352292367    0.81272317945576   -0.44957801151926
H           1.42968744490702    1.28376556560020    0.06109225923791
H           2.29736877947672    0.00133864771305    0.04853455770440
H           1.33356145230596    0.28755008715782   -1.80043011159929
N          -1.53767206313052    1.31050371301551   -1.44077853364686
H          -2.06202465855747    0.56672978252922   -0.99119632244534
H          -0.88651860384615    0.87371488173888   -2.08700104770092
H          -2.17948205801482    1.88517223372657   -1.97062918611415
