    26
        -50.44681113  Gyration_radius:  2.52077289122 Dipole_moment: 2.736
 S          -0.08091887286763    1.96541185241709   -0.53676533997157
O           1.08200485252627    1.44956653187512   -1.20414322478008
O          -0.42780081454573    3.32398763646430   -0.72128556778650
O          -1.29491163672141    1.08045255331050   -0.95414061424607
O           0.05155248657045    1.69888397802060    0.98943937235066
H           0.47258271087524    0.80827453394807    1.16586352185969
H          -0.96948564809502    0.14924046666660   -1.14886815463364
O          -0.55356157393508   -1.32934287728164   -1.44054904819993
H          -0.62821419245016   -1.51577512046142   -2.37759972414703
O           0.93311223287587   -0.64938044123043    1.61716156210046
H           1.16289621982063   -0.66554068098559    2.54759330967891
O           3.40973109609995    0.22061521710297   -1.66722183580041
H           2.65057508603420    0.79503811085479   -1.45927592470470
H           3.62510086871189    0.38721348638598   -2.58612603126202
O          -1.40410339513800   -1.65773202140803    1.25052070602155
H          -1.38088352848841   -1.78621883209439    0.29362097468395
H           0.04307555428319   -1.12317187620318    1.53032408051941
H          -1.98707637097843   -0.87390994497449    1.41113920774281
O           1.88299081108804   -1.79785935845049   -0.73310988918283
H           2.52005236961637   -1.17108452853879   -1.13389426523580
H           1.80758973295680   -1.51870099594545    0.19068237246488
H           0.40963852135523   -1.51826867716951   -1.19400939221661
N          -2.75273714144880    0.66848512209688    1.56048512183916
H          -3.70142564391614    0.77657835503557    1.89675000627328
H          -2.71472099414084    1.00056821903212    0.60210553235108
H          -2.15506272006636    1.28266926153094    2.10130325430024
