    26
        -50.44681123  Gyration_radius:  2.52068536645 Dipole_moment: 2.736
 S          -0.82720632621195    1.75972867450904    0.61355426330052
O           0.45346886946558    2.12447815485920    0.07432528790056
O          -1.66985939605449    2.77670220553729    1.11928476627542
O          -1.59872339838356    0.97786917031070   -0.49303798825125
O          -0.62223340687994    0.69673597553474    1.72971489179651
H           0.10739920414023    0.05523457225337    1.48947181855363
H          -0.93569676772615    0.49789868696187   -1.07695722647910
O           1.08836635508138   -1.16052484739581    1.17319359539148
H           1.29254271988739   -1.65424824148322    1.96900461731435
O           0.02400010700957   -0.30538226361465   -2.01404712671295
H           0.04068570297503    0.08858687036602   -2.88749271983598
O           3.08219076133502    2.18814775631432   -0.40251158773539
H           2.15655739232449    2.26303470748584   -0.10725847550033
H           3.23091858567313    2.92294922007447   -0.99955605556737
O           2.44177854518174   -0.33404128456133   -1.11381294886513
H           2.25140901750676   -0.69726493468765   -0.23699088737463
H           0.98164890016693   -0.29974718936290   -1.68682132158202
H           2.79232432037489    0.56442659109161   -0.94289065874758
O          -0.67166583511718   -2.40426641903526   -0.22999929707206
H           0.45212853868938   -1.73252744167991    0.63261955230524
H          -1.51440193631290   -2.09188574297409    0.18493664872524
H          -0.58690991734701   -1.92524349326265   -1.06431337842162
N          -2.81841760237727   -1.26252980368811    0.95945034859068
H          -2.51037439051047   -0.94112350551426    1.86985358463726
H          -3.73888474729502   -1.67053187147463    1.06482052457694
H          -2.90104527560554   -0.43647555656501    0.37545978278966
