    26
        -50.46726180  Gyration_radius:  2.48509992353 Dipole_moment: 4.595
 S          -0.38855878214203    0.89809513277925   -0.67065009375013
O          -0.98408483630711   -0.34399842103423   -1.16605096913554
O           0.87615018766673    0.60021016658997    0.03079899470392
O          -0.05294917525814    1.79801193290809   -1.87202869291981
O          -1.29552892955700    1.61816892611049    0.19445922331576
O          -1.28152078926566    2.30756241305786    2.72280977576738
H          -1.43501403985922    2.13618994191630    1.76350725294969
H          -0.95602115778148    3.20763867045815    2.77603776099532
O           1.29850687228383   -2.07359115871389    0.20121657515763
H           1.27469408726438   -1.10591285802134    0.08427882007550
H           0.40442016731952   -2.33663632435603    0.43655234307271
O          -1.60699139473236   -1.42965731924935    1.10073291673374
H          -1.41725009186563   -1.05267243684841    0.20132627015127
H          -2.54441074588917   -1.28369399467477    1.24089497506619
O           0.78149117812676   -1.83473470890505   -2.50719050509503
H           1.23582288532823   -2.18970233725919   -1.72497923251904
H          -0.01045873919707   -1.39425741335102   -2.14032474806291
O           1.73909051820791    0.50102825519711   -3.18110866074413
H           1.58583441311619    0.60818632733340   -4.12232184571340
H           0.68989817642802    1.33532764881576   -2.36710528251603
H           1.49546888964475   -0.44277387933278   -2.96703671016378
N           0.13514111020003    0.08736230831906    2.43645116555236
H          -0.59223858206296   -0.60737486560911    2.13326644290798
H           0.59312949832157    0.36984930836975    1.50643741044161
H          -0.34759203056548    0.94261707888394    2.80485113424271
H           0.80297131055889   -0.31524239340627    3.08517565948539
