    26
        -50.45061095  Gyration_radius:  2.47874680887 Dipole_moment: 4.878
 S           0.14153983787903    0.36588706692615    2.36870711225399
O           1.32113710532135    1.21304783102557    1.83979607976774
O          -0.45155210286572    1.03923888765355    3.46400883854745
O          -0.83849907032325    0.34499417368127    1.14813870042504
O           0.55098691215941   -0.99954603592959    2.55337642122889
H           0.73676870931246   -1.81427658699530    1.16775016826667
H          -0.78129625508299    1.24974612940193    0.70495193493421
O           0.99212923486823   -2.21693597983751    0.30040906343859
H           1.32342807898744   -3.09366270401622    0.50171932621462
O           0.83972907190031    1.09102842710929   -1.97082183204003
H           0.98642426247873    1.33225269513601   -2.88600502520253
O          -0.34520537968794    2.54364382741539   -0.04678392131218
H           0.37178031850734    2.85743480932512    0.51332958796837
H           0.07388793820957    2.13193309688272   -0.83491002110612
O           2.45758504271001    0.02070048161880   -0.07218104403147
H           2.07787527862290   -0.88013773631502   -0.03454131205231
H           2.03326326208152    0.45591011609044   -0.83736051341909
H           1.85075062332027    0.71004387852107    1.11277319610831
O          -0.39056540290150   -1.17180458846031   -1.90922186868387
H          -1.31758588579631   -1.03738175762551   -1.59987959553486
H           0.31788551608972    0.22583018694838   -1.98754777260411
H           0.04784125669178   -1.65458634834053   -1.19181185910677
N          -2.81265496296566   -0.74677203373710   -0.76181987977838
H          -3.38963763462169    0.01706577656537   -1.09009800154038
H          -2.37622670510725   -0.45300279679624    0.10694374137963
H          -3.41978905978253   -1.53065080624404   -0.55892151412169
