    26
        -50.44594623  Gyration_radius:  2.42060776301 Dipole_moment: 3.144
 S           0.84910850883995    1.19933374010637    1.27589953384290
O           1.84140077382337    1.26506257604605    0.22843793241072
O           0.97903869061548    2.08791719767704    2.36699035637081
O          -0.54931173297355    1.38039181269024    0.64199697661312
O           0.81438805637063   -0.25287440942588    1.82724395494218
H           0.89885373002957   -0.93879692451356    1.09905874714277
H          -0.56610510339809    0.98804027837688   -0.29826155325054
O           1.07013787571439   -2.07182196626374    0.00602102036894
H           1.77628991263476   -2.66773616498539    0.26209622693473
O          -0.71599570099202    0.22363501724573   -1.61649545841297
H          -1.30756456801769    0.74245343831032   -2.16368738436345
O           0.63526453996141    2.78145676840555   -1.71746707601576
H           0.78283801766631    3.71272579220716   -1.54852497721876
H           1.16851836180058    2.30148994027801   -1.06586831640517
O           1.95068551818944   -0.47661596602487   -1.81870458776680
H           2.19660436435525    0.21558611804445   -1.18004572947145
H           1.41990344710070   -1.53841534444696   -0.77612537315569
H           1.12828692771844   -0.15065573678790   -2.21191705894673
O          -1.70111448980086   -1.89322472934567   -0.52115213502885
H          -1.99735550803320   -1.54780718285578    0.35650715592423
H          -1.19399707259718   -0.60772717690299   -1.30997588172482
H          -0.84412142527678   -2.30659886339042   -0.35374166425387
N          -2.17473689648013   -0.76730402552876    1.90172692288720
H          -3.04114431208950   -0.82029617413342    2.42265423038889
H          -1.99742593534970    0.20740474680416    1.68150479507733
H          -1.42244598980078   -1.06562278156549    2.51182933312567
