    26
        -50.45002654  Gyration_radius:  2.51431829398 Dipole_moment: 6.066
 S          -0.96577770283361    0.60390201355420    2.30808260474958
O          -1.69905634881728    0.39386524380933    0.95286290365543
O          -1.87342418411443    0.55696624274780    3.39336633210497
O           0.15934617863746   -0.30044257315924    2.35314373348297
O          -0.42920137933720    2.04691934546357    2.14191389356716
H           0.22357331430520    1.98794269259999    1.39392665869425
H           0.83014329520951   -1.57807241975896    1.63203956887843
O           1.12881227368744   -2.34123291732960    1.08226790350287
H           1.42754736783795   -3.01334117242074    1.69613651513765
O           0.00687478242650   -0.98683885644015   -2.45398849464355
H           0.23455305197640   -1.63831971058015   -3.11829409783387
O           1.10054015264817    1.87418974554238    0.04794767613864
H           1.58216588995157    2.68768824428534   -0.11320586694631
H           0.34180932761905    1.83647365409462   -0.63466141432397
O           2.05659951289680   -0.59096325156148   -0.85347108952295
H           1.90692168877856   -1.27022139983154   -0.17630046159287
H           0.83774766547509   -0.81822146258615   -1.93192356016158
H           1.85742574538022    0.25726750443823   -0.42510805806223
O          -1.23356208958363   -1.81539686516205   -0.19079582231776
H          -0.92095174218300   -1.53350769726741   -1.07708662761062
H          -0.44908410499282   -2.18926195862134    0.25087537105537
H          -1.54140575548673   -0.53563152676300    0.54219042379101
N          -0.91938243277097    1.67408742539270   -1.58409215226649
H          -1.27254248598641    2.40767486276002   -2.18412608343836
H          -1.63390955861024    1.43888825898145   -0.90261432518540
H          -0.75576246211733    0.84558658780936   -2.14908553085781
