    26
        -50.44594582  Gyration_radius:  2.42073362433 Dipole_moment: 3.161
 S           0.29324028572258    1.29021490919221    1.42820094694436
O           1.57331113811704    1.40635363401430    0.76949244002214
O          -0.00723083227122    2.21109660351414    2.45719585559612
O          -0.81967076105208    1.35081391118198    0.35670164694002
O           0.16672252411008   -0.14724625134284    2.00407157121789
H           0.53365948380193   -0.84167536374091    1.37874774364820
H          -0.49365194770667    0.93541155876841   -0.51483695677387
O           1.13385151080930   -1.98432506688163    0.46113117004070
H           1.74719730928645   -2.51928152991177    0.96803671312931
O          -0.13952981657236    0.13177712304917   -1.76865175532609
H          -0.54140990017652    0.59296630062371   -2.50647047042102
O           0.99407037729160    2.78229473722690   -1.53603075454706
H           1.00190589618440    3.72498788290554   -1.36581189067943
H           1.30953765614622    2.35891011988983   -0.72336771627662
O           2.47851880688376   -0.37118868942471   -1.03552239637948
H           1.81832825509116   -0.11752338889773   -1.69653505922034
H           2.45037518012229    0.35273759026848   -0.38541953673467
H           1.69365683894845   -1.44487779051527   -0.18245929923536
O          -1.30196300395883   -2.02823957579795   -0.97243728848870
H          -1.89792105095701   -1.68627953261885   -0.26164484510527
H          -0.64005875971486   -0.72596104099696   -1.60316016115219
H          -0.52739277477060   -2.37219389015540   -0.50873088931683
N          -2.63432524897653   -0.88626115677721    1.09705713549857
H          -2.11767721880765   -1.11577289614871    1.93823312802682
H          -3.62132533291795   -0.99032544435153    1.29673435695681
H          -2.45221861463113    0.09358723692350    0.90547630163769
