    26
        -50.45002645  Gyration_radius:  2.51505276741 Dipole_moment: 6.072
 S           1.16339265523384    0.26183750797717    2.28385625999597
O           1.77681792678638    0.25813435897883    0.85477450771532
O           2.16067649259842    0.06470736234277    3.26896528554878
O           0.62087185504798    1.70916407287436    2.37733787821947
O           0.04250710619157   -0.64878975087522    2.29198433970071
H          -0.70156287439029   -1.80431641914340    1.44695431273239
H          -0.09146863445811    1.75742848615636    1.68509504911390
O          -1.05436179081490   -2.47742551713711    0.81750837070380
H          -1.30994032659299   -3.23293526918359    1.34825842684164
O          -0.22092909956292   -0.61564224507503   -2.56364694149327
H          -0.50722254355106   -1.16640575401506   -3.29324526370459
O          -1.07797383371031    1.84022999849160    0.41461516629371
H          -0.37905208891621    1.90716285213484   -0.32706495499263
H          -1.56479554567894    2.66645556525858    0.41615356156500
O           1.19847712892084   -1.76022329140494   -0.55860266654639
H           0.45144421903781   -2.19929405567083   -0.11235579604929
H           0.81426924292507   -1.35243900972266   -1.36418735316560
H           1.57720040534660   -0.60132529459630    0.32660678851203
O          -2.12685402279165   -0.46795566371423   -0.75680057503263
H          -1.00425877799486   -0.52884022297210   -1.95511016090509
H          -1.92572893181362   -1.23822495264634   -0.20117866416362
H          -1.88584548186854    0.30941935257853   -0.22741049340520
N           0.79666305084422    1.89246246396974   -1.39279545174784
H           1.10421207698736    2.70848298998305   -1.90505486152510
H           0.57963127582516    1.15624612141755   -2.05853928603631
H           1.56383052640205    1.56208630398921   -0.81611747817792
