    26
        -50.45711996  Gyration_radius:  2.43853139044 Dipole_moment: 7.278
 S           0.27443975358203    1.33952237573676    1.95620342430582
O           1.42724893025853    1.10255462066558    1.10513135842008
O           0.31623886330930    2.48640050171904    2.79238653473468
O          -0.97445388592427    1.27946224167896    1.13115922746960
O           0.16399811998668    0.02865366163533    2.85331956889063
H           0.59181183919165   -0.62061610005198    2.27359952445488
H          -1.03054808997279    1.67563506712655   -0.43026027502755
O           1.29320853111723   -1.24698328939582   -1.53988665994844
H           1.99166989652553   -1.64421757920255   -2.06083153645730
O          -1.09671003442571    1.80528719598733   -1.41269104974116
H          -1.63028094416961    2.59029465958616   -1.54066628397859
O           1.08490462826687   -1.84710956015756    1.07796316280179
H           1.97264881747948   -1.95619496249746    1.42249781095656
H           1.19630079436950   -1.57473784879947    0.13620452543595
O           1.61872247902819    1.29342935930091   -1.48744354736528
H           1.46975650060567   -0.24694235055347   -1.55061530053358
H           0.73810255492817    1.64653503331084   -1.68906674600236
H           1.68234560121064    1.34363844707727   -0.50484694656345
O          -1.37564044224865   -0.86925091266935   -1.91741365391556
H          -1.62546225647422   -1.14835958269764   -0.40037174316464
H          -1.37770030264942    0.10685287764191   -1.93377462383690
H          -0.43460100229519   -1.11927576243785   -1.97891484259843
N          -1.59998489941867   -1.14549379304494    0.67286151417819
H          -0.81607548203436   -1.71723368807411    0.99739998258977
H          -2.47413464181165   -1.45584608141928    1.08161054665563
H          -1.38580533842822   -0.10600453046618    0.94644603824152
