    26
        -50.45712006  Gyration_radius:  2.4384812716 Dipole_moment: 7.275
 S           0.11823447609732    1.21813263714023    2.04883127350066
O           0.97463432534610    0.05785940655675    1.87672370104017
O           0.52876312262847    2.18562160162436    3.00369393316951
O          -0.17393091629825    1.82461092842354    0.71062725162250
O          -1.29238838732577    0.61387836593300    2.47397363695640
H          -1.23590265390223   -0.26847270337972    2.07526838239706
H           0.83662701334846    1.74964170604166   -0.54269197275476
O           0.56515362908916   -2.12070748925085   -0.88323595103284
H           0.91057145759100   -2.99905639178399   -1.04515456287946
O           1.37312854331111    1.64096707912643   -1.37139180857949
H           1.70250322627875    2.51340251371173   -1.58970247925508
O          -1.24494292173613   -1.74480583577243    1.07637952286073
H          -1.02321132913284   -2.33950313176773    1.79461937503662
H          -0.53531333014464   -1.86592997508959    0.40168424427940
O           2.47846450454277   -0.58119581852612   -0.15420543424710
H           2.36054177677863    0.21251222817302   -0.69916788425349
H           2.06515452304447   -0.34722754580377    0.70986638917402
H           1.35920194291825   -1.55547914897451   -0.59783715650529
O          -0.38795565167897   -0.13474978583727   -2.48135834200111
H          -1.45612238689164    0.21919950754146   -1.39720018265594
H           0.29848648472317    0.53451309267755   -2.29723148301110
H          -0.03786329704292   -0.96363458838121   -2.10404204945131
N          -1.96631850300574    0.46939321750815   -0.48636655771832
H          -2.84123888447328    0.95336193343109   -0.65312565248372
H          -1.26417674211433    1.10616641523726    0.06370190696800
H          -2.11210002195319   -0.37849821856318    0.06734188982624
