    26
        -50.44594634  Gyration_radius:  2.42081091464 Dipole_moment: 3.139
 S           0.23730851921688    1.54598955944842    1.16013047522996
O           1.57300425238426    1.47952417487103    0.61477876425266
O          -0.10010515228873    2.66866031879051    1.94924418872266
O          -0.77594446508582    1.42294953092642   -0.00119188301133
O          -0.01350312260341    0.26288530008066    1.99983396257055
H           0.36895641963778   -0.55724343523138    1.56505439457513
H          -0.40003510982010    0.82714282508840   -0.73705921008650
O           0.98461249798253   -1.88382814658588    0.95754301691690
H           1.52506429546804   -2.32273717851935    1.61679141230003
O           0.01502160066430   -0.22951606091703   -1.76529752634857
H          -0.29935174368151    0.08257263455270   -2.61517522884694
O           1.27066939394785    2.36856301259775   -1.96580970767654
H           1.48909022235297    2.11162993263302   -1.05718663620256
H           1.33440264709370    3.32389850352137   -1.99527228890821
O           2.53074644586147   -0.66090422497437   -0.70498572560401
H           1.94055783245959   -0.52545291778969   -1.46040560731894
H           2.48810821251580    0.18153204117076   -0.21940927628576
H           1.62335145447570   -1.50815732077295    0.27232041768719
O          -1.31970160817875   -2.13905307050182   -0.65946671516286
H          -0.60603180623602   -2.40578932183977   -0.06547452658074
H          -1.95515677186064   -1.63823656828371   -0.09134952411212
H          -0.54117670384509   -1.01750072494689   -1.47649808478264
N          -2.76132431096821   -0.55102924777230    1.00222101857716
H          -3.76525145602451   -0.58085440625773    1.12909086794372
H          -2.51630451958169    0.36157885145069    0.63198360551189
H          -2.32700702389227   -0.61662406074686    1.91558982663380
