    26
        -50.44594625  Gyration_radius:  2.42074106134 Dipole_moment: 3.140
 S           0.42048897098999   -0.57548325794497    1.81203942024293
O          -0.99116157072878   -0.88092674315811    1.81197429743834
O           1.19159275369854   -1.01014843532965    2.91357192297114
O           1.04462507913430   -1.12846157654260    0.51000034482154
O           0.58875761654611    0.96284374808437    1.67178565257723
H          -0.06550468771743    1.35970534874025    1.02183544237631
H           0.36831230800183   -1.09035758482000   -0.25081854046222
O          -0.52284792362345   -0.85226328214346   -1.47390439049836
H          -0.37781969819859   -1.59462590631446   -2.06244906380231
O          -1.09625576482224    2.05737727610821    0.04291708760513
H          -1.53116154156525    2.78367809821745    0.49311620748217
O          -1.17575451030932   -3.10777734101271    0.21599901473349
H          -1.20393199158149   -2.37229490154452    0.84657868575889
H          -1.02907120794961   -3.89893388449009    0.73564347314960
O          -2.70830110757946    0.04640836996559   -0.04068898860336
H          -2.35593209291196   -0.34840841065246    0.77617283531290
H          -1.79063563693750    1.33223404477733   -0.06084602030807
H          -2.31836766870634   -0.48951053153040   -0.74645762249207
O           0.59429391756896    1.38083226921482   -2.11918031009534
H          -0.10020086104465   -0.02902963013752   -1.87049994926003
H           0.01799824651416    1.92472608597132   -1.56662091544840
H           1.44994445813592    1.32818851229869   -1.62682243970726
N           2.73267679671849    1.11506863672439   -0.47040523548316
H           3.70251094543124    1.24478757417912   -0.73016129842661
H           2.61039145593182    0.15179811503698   -0.17531932531162
H           2.54535370501411    1.69057342629597    0.34253971543205
