    26
        -50.45712004  Gyration_radius:  2.43854164615 Dipole_moment: 7.274
 S          -1.30802630913719   -0.71794355135942    1.86283888162990
O          -1.43404303282399   -1.43278902693580    0.60487036167671
O          -1.67996756808566   -1.41754731143733    3.04119344397432
O           0.06237984610585   -0.12114444657688    1.96145688463447
O          -2.23582431847961    0.56438153190170    1.68829039248773
H          -2.22275626741808    0.66388056034575    0.72359633587277
H           1.36697383884894   -0.76376020720489    1.26651656734076
O           2.17716266735723   -1.05841815534779    0.77342760800860
H           2.79292315473686   -1.36938459431839    1.43784485003204
O           0.05751439330615   -0.19307217861427   -2.35748311351358
H          -0.07667088450991   -0.43388639374842   -3.27455061786184
O          -1.92889778159446    1.01705614870240   -0.99860498340135
H          -1.22268656040054    0.51693456943128   -1.47255405055679
H          -2.75834972955222    0.64917053532754   -1.30761289609641
O           2.06943645351493    1.02943044860090   -0.99189794561894
H           1.47723604186541    0.64074428733958   -1.66286837959203
H           1.01445828350813    1.75550545397222   -0.09674839529168
H           2.32325896011825    0.28178572487268   -0.41776156034844
O           0.44286814059504   -2.31457006291525   -0.97441113597592
H           0.20311227504675   -1.06486179927673   -1.85725276414125
H           1.22079978779018   -2.10388695509567   -0.43462610471865
H          -0.32176319634599   -2.15546949783975   -0.37263328933603
N           0.19354987763120    1.99522508632586    0.55226529056221
H          -0.67122156224320    2.03923630749359    0.00729953453741
H           0.34607687254034    2.85447131729150    1.06798319608857
H           0.11245661762119    1.13891222906741    1.23142187960900
