    26
        -50.44681122  Gyration_radius:  2.5207463919 Dipole_moment: 2.736
 S           0.18355340724573   -1.75271709141337    1.02600941411400
O          -0.92181592189067   -1.96397901099650    0.13310730982486
O           0.58098469404925   -2.80620109479627    1.88171023143276
O           1.40933909209709   -1.32120981586376    0.16439889666951
O          -0.10318433678307   -0.49799031215757    1.89869811917989
H          -0.56219377727733    0.21563169394300    1.36809825729662
H           1.08011601185829   -0.83318487464667   -0.65069001456461
O          -1.10172042099386    1.51876709698873    0.62524115613777
H          -1.41991185130464    2.16736668158102    1.25518890486857
O           0.65561151704897   -0.03726899273730   -1.92775134108623
H           0.81519283350897   -0.56222086912326   -2.71349219094533
O          -3.22583936752435   -1.62939037180059   -1.17869644501232
H          -2.47498006563363   -1.82020524361795   -0.58761218929241
H          -3.34851179641366   -2.41441712726588   -1.71459256048552
O          -1.84913965537336    0.58014173449511   -1.88585757773667
H          -1.85638974388637    1.04418755480632   -1.03638953574460
H          -0.33146796248366    0.18598408157349   -1.93688821638517
H          -2.42810272098165   -0.19842431437813   -1.75184383199757
O           1.23291147393257    2.17010731303765   -0.23461758335595
H           1.29868885668557    1.58158959075370   -0.99753255473278
H          -0.22020716192461    1.86730281530633    0.27086074533926
H           1.81769461343559    1.78408969037056    0.46460281169760
N           2.60547859414756    0.87315518813481    1.70482720016352
H           2.67294839410898   -0.03991424638990    1.26661754595771
H           1.97282357798516    0.76897261408151    2.48964745010423
H           3.51812172637059    1.11982732009509    2.06695600853949
