    26
        -50.46012851  Gyration_radius:  2.52028309366 Dipole_moment: 4.819
 S          -1.10607576530773   -1.14529714036844   -1.40407019077495
O          -2.04203447614140   -0.07281750128795   -1.61790130342000
O           0.29586256137382   -0.78252258679315   -1.49740323948069
O          -1.37996223805501   -1.88613276609810   -0.16669567476624
O          -1.33476947235734   -2.19112669554724   -2.58450581403215
H          -2.27665897505019   -2.21155310265262   -2.73182060832263
H          -1.51542282595958   -0.47314418649377    0.73637408571741
O           2.36981793452033    1.61335136443459    1.20995694218305
H           2.78732937996711    2.37619872958714    1.61132997901289
O          -1.48480310773854    0.36246033948255    1.24386062700967
H          -2.35516358263175    0.75379394233096    1.14361710228028
O          -0.21537724586436    1.73338012276582   -2.42960865841422
H          -1.07395990174120    1.30711137476288   -2.27199517337003
H           0.40563111826729    0.99535184218163   -2.38869903063459
O           0.11270810218580    2.41800206603571    0.15409675047245
H           0.04160895937362    2.33999189254921   -0.82162712236559
H          -0.49626612441222    1.75382825375981    0.51127050659412
H           1.57791255473444    1.96452751738730    0.72026245358398
O           0.94568338619242   -0.13143476475745    2.56794660777814
H           1.10077607373899   -1.22415139143529    1.54801853819788
H           1.54614262599406    0.55357461091755    2.17579744818432
H           0.04484831409153    0.17312700549321    2.38049353619452
N           1.06667484329923   -1.91908430125033    0.70603033862902
H           0.08282570578874   -2.25461631151705    0.60936253067900
H           1.74216530649879   -2.67097325309990    0.78366301551211
H           1.16050683923387   -1.38184505038648   -0.18775365644573
