    26
        -50.46012848  Gyration_radius:  2.52023623962 Dipole_moment: 4.822
 S          -0.20579289773601    1.40116588512044    1.58122224305624
O           1.11067445386029    1.93459244536224    1.34804518340417
O          -1.05401740398192    1.28945709307332    0.40917543113572
O          -0.17174149164428    0.14034243029892    2.33235669279260
O          -0.95659434548652    2.43955414976964    2.52862906674490
H          -0.29742422517541    2.75095815014480    3.14328174082911
H           1.01444828432121   -0.50907582320473    1.33184574739414
O           1.62684814567859   -0.88753301874845    0.66966690251123
H           2.49882885112498   -0.57597555090928    0.92125159021239
O          -0.49715535140999   -1.37440384952896   -2.74683665536699
H          -0.24483692623619   -1.73047294569731   -3.59942603812140
O           0.67131166456036    2.65282047794602   -1.21115422083790
H           1.08767327332831    2.59406589606379   -0.33541843886560
H          -0.24208280274704    2.39353195504480   -1.03661261409423
O           1.44920550441339    0.17903702800733   -1.93721582464511
H           0.20071059942242   -0.70351702706185   -2.51639924058018
H           1.22775187897540    1.12975087832016   -1.83587470915573
H           1.57754900038936   -0.15353970523444   -1.03585604989796
O          -0.19449504933327   -2.68846276591424   -0.48894924828826
H          -1.22452592544185   -1.88276621506136    0.25125724559436
H          -0.31165443492954   -2.31722141949195   -1.40111251406495
H           0.62612134994470   -2.29817460385492   -0.15177245233958
N          -1.82479982191939   -1.15790673499475    0.80568444494747
H          -1.76969247552182   -0.22800504099710    0.32762385361137
H          -1.31717935816089   -0.93355513382118    1.68991244492804
H          -2.77913049625937   -1.46466655467397    0.95667543906269
