    26
        -50.45712036  Gyration_radius:  2.43833055049 Dipole_moment: 7.254
 S          -1.48148781650360    0.34375937857879    1.83839314792785
O          -1.91416134882826    0.73941128414041    0.50961357728803
O          -2.49753549441802    0.09048553916105    2.79747547699655
O          -0.50515368558696   -0.78689990664001    1.72848407082736
O          -0.56611466733959    1.54834854878004    2.33533488371395
H          -0.26709284731920    1.90670257456084    1.48521147633215
H          -0.52373643452823   -1.86962385851802    0.53456932532062
O          -0.42635463234804   -2.49489838475097   -0.23083190092769
H          -0.65205601698592   -3.36262272078583    0.10591988542350
O           0.34102770712189    0.74388592658165   -2.21996165819098
H           0.26985050622889    1.13563122914414   -3.09085586202020
O           0.51310159393727    2.34225067034416   -0.05770120519233
H           0.38702484704217    1.75365456521773   -0.83946152283043
H          -0.04213032421745    3.10692992256582   -0.21847078662513
O           1.83591285206662   -1.26891811875728   -1.16207473327507
H           1.10890056534029   -1.88171999016600   -0.94090223861253
H           1.42638581181428   -0.58731218632561   -1.72746195922939
H           1.97005717346437   -0.46193953286364    0.16936507874294
O          -1.78111390087843   -0.60204164139414   -1.72188606628894
H          -0.52061778429863    0.22653339646156   -2.07407842960064
H          -1.44726258236445   -1.44749530093309   -1.38330163652010
H          -2.01089277470477   -0.08864575878726   -0.91210753755139
N           1.78447863846009    0.10480196122063    1.06202369557040
H           2.51662742066017   -0.01107431299448    1.75343610632995
H           0.82584872626447   -0.26988264748002    1.43875868992949
H           1.65649444791954    1.09067936363608    0.82051013246415
