    26
        -50.46012847  Gyration_radius:  2.52054730966 Dipole_moment: 4.820
 S          -0.34684807445819    1.26006989919379    1.67352346973510
O           1.06416621527911    1.43685758955033    1.89650120072607
O          -0.80051056904967    1.48554429182973    0.31376959712860
O          -0.83604563161895   -0.02469383371355    2.18847992184242
O          -1.08764615465480    2.37426481032371    2.53912878470308
H          -0.59265849962510    2.44127046914690    3.35133784829860
H           0.41415408507238   -0.87883402368221    1.45515801834909
O           1.09356894296959   -1.34864032031717    0.93131204601675
H           1.89489744496300   -1.30772288120820    1.45758778559371
O           0.05954717859264   -0.94290354658595   -2.96600802195102
H           0.47059815550377   -1.27856526526331   -3.76334715442937
O           1.60248388809674    2.46985407967250   -0.53262982358983
H           0.64526333849704    2.45194935990145   -0.65685514098120
H           1.70752064077254    2.22398164233403    0.40128834679755
O           1.96981927745867   -0.04792325633122   -1.41475396407730
H           0.78919392130371   -0.50743297657738   -2.44801750565193
H           1.95426303756013    0.91451042560375   -1.22325123413685
H           1.73692902243982   -0.48095623505589   -0.57938996750558
O          -0.65428500685288   -2.48225935494811   -0.95687512278890
H           0.09180630006649   -2.35944505422372   -0.35055783902004
H          -1.64424800303034   -1.49689482648849   -0.40227580794600
H          -0.39847705011349   -2.01442105012337   -1.79315717857468
N          -2.19956146467048   -0.68913654223263    0.07949338718909
H          -1.78840614106570    0.23005380683730   -0.20714115739336
H          -1.94707601862900   -0.68877427106207    1.09253200444994
H          -3.19844879479892   -0.73975293658969   -0.08585246278295
