    26
        -50.46012850  Gyration_radius:  2.52034392098 Dipole_moment: 4.819
 S          -0.60194706348115    1.70040983499589   -1.11928151552925
O          -1.89812339748370    1.13199376771671   -1.38160989525841
O          -0.17907848253284    1.68449114355799    0.26876689362858
O           0.43755700147994    1.14701325695510   -1.99577623858454
O          -0.69754220081497    3.24564624197315   -1.49705694690971
H          -1.24550591980877    3.28702816729933   -2.27633741795431
H          -0.04733837810434   -0.43553835249109   -1.69458456809349
O           0.82924908569299   -1.71407161435329    2.46183332028154
H           0.76828902310685   -2.45529551058629    3.06535469245125
O          -0.29280593257029   -1.34008633884506   -1.41483003640191
H          -1.04683159829126   -1.57916309820288   -1.95798918026030
O          -2.60576266434964    0.84784250745505    1.20231998409784
H          -1.78521721690263    1.32087109439848    1.38927320374205
H          -2.67504687042552    0.90192019460714    0.23486263398990
O          -1.43573748578732   -1.57728760615075    1.15483941008810
H          -1.11085721606712   -1.51315850777511    0.24385887541255
H          -0.07735977636430   -1.61359254581061    2.06409068897048
H          -1.96867945735194   -0.76605975540891    1.29981840540645
O           2.00775738498533   -1.86024126979684    0.11535084169896
H           1.24597957845539   -1.98069970385510   -0.47164324814662
H           2.22790767858537   -0.37780688232951    0.00475233716552
H           1.64516515007908   -1.91010973946697    1.03713153799049
N           2.19198929821500    0.70532100560640   -0.13140020896895
H           1.38695582773603    1.09415151300657    0.41357058199406
H           1.85701722536043    0.89372107107821   -1.10207901901382
H           3.06996642669790    1.16270112643051    0.08676484814303
