    26
        -50.45807530  Gyration_radius:  2.42123341625 Dipole_moment: 7.654
 S          -0.16949676525613    2.11232660459449    0.60097174400666
O           0.97874385505666    1.52845873672570    1.27921756694660
O          -0.45424266991812    3.47100331310997    0.90564712479024
O           0.11561541240868    1.97559568386263   -0.96050607968477
O          -1.36287699771967    1.22911817506240    0.77180835099456
H          -1.36857968728631   -0.26948478832510    1.38559984615939
H           1.08284920484488    1.74874602762711   -1.02895327165557
O          -1.40210393060399   -1.23031219706168    1.63214967634866
H          -2.07389757136114   -1.30843343377995    2.31017585508878
O           1.72441131070555   -1.54872978730098   -0.70999222979217
H           2.37219685420664   -2.24679113655764   -0.81422203551941
O           2.53156230497209    1.11034991933508   -0.82259996644736
H           2.38548113200991    1.28748434361142    0.12300654127373
H           2.36968219368134    0.15673634383412   -0.93746435414767
O           1.33355391754063   -1.03512539930778    1.79243845493133
H           1.63166677968553   -1.39636676134395    0.28201802363845
H           1.27704972910218   -0.05495678273134    1.74119822206740
H           0.42013399177536   -1.31842666378949    1.95389761709056
O          -0.92818639171705   -2.01090328782878   -0.95846008618868
H           0.04653538984195   -1.90711379057557   -0.99802135746989
H          -1.14715675592808   -1.97295591666111   -0.00965228833754
H          -1.53948937744074   -0.67713180338982   -1.43962107646013
N          -1.90092816140593    0.33389719266995   -1.54356986861565
H          -1.27927133571422    0.87847231485758   -2.14077716235754
H          -1.78193520058789    0.77516986731125   -0.54677300042165
H          -2.86131725089144    0.36937323605163   -1.86751624623702
