    26
        -50.45807525  Gyration_radius:  2.42117663007 Dipole_moment: 7.651
 S           0.22605724693139    0.01865600590349    2.19049914346378
O           1.20237073757865    0.93351554950746    1.61665362451481
O           0.25644145288239   -0.12578165929335    3.60404803195909
O          -1.20671905069765    0.55959007693593    1.75127204217171
O           0.28573091299514   -1.29646765850878    1.48309864091213
H           1.10678613535266   -1.61976005672282    0.12545172086626
H          -1.04366882170400    1.48263677388339    1.41498636226327
O           1.48538815708233   -1.82961066593741   -0.76775473819633
H           2.01988551253191   -2.61590643441987   -0.65263012361773
O          -0.10525065428056    1.59212928242453   -1.82350872500102
H           0.02991615827243    2.14458510669486   -2.59441759542999
O          -0.45553429273871    2.76798038886741    0.67271716971081
H           0.40328976876532    2.47965361054342    1.02788671363096
H          -0.45429360890915    2.49877225269185   -0.26338947953850
O           2.16042831378893    0.83244830435400   -0.83953089749411
H           2.17607149558487   -0.12537576001323   -0.99130075011100
H           0.81311483675741    1.34450377337738   -1.48996849526659
H           1.95040222888170    0.92205715696983    0.11673241116622
O          -0.80822246883953   -1.01023060621780   -2.03780578935364
H           0.06015227557155   -1.38933261532636   -1.81018004892174
H          -1.60026448362808   -1.33369754584004   -0.75215163363867
H          -0.66638434420015   -0.03954800504444   -2.04676283881785
N          -1.92719007122064   -1.52633957553350    0.25757419785254
H          -1.00576730982215   -1.52923446143845    0.85192217868949
H          -2.43976998465347   -2.39779442205682    0.33803408406038
H          -2.46297014227431   -0.73744882580144    0.61852478412525
