    26
        -50.46012852  Gyration_radius:  2.52011175333 Dipole_moment: 4.820
 S           0.78780723015874    0.80983600578132    1.79677895428713
O           2.09495116947418    0.96376526660856    1.21394895905827
O          -0.31337630353021    1.34420154121961    1.01732236295066
O           0.52123557238852   -0.57295966075774    2.21129008174947
O           0.78554451975942    1.66419999283106    3.14195974638759
H           1.65107228516977    1.54581426770522    3.52418812016945
H           1.04632402076313   -1.19325436578056    0.73818363336949
O           1.26163473526618   -1.50497735745306   -0.16357878812688
H           2.21863722349486   -1.56985435252266   -0.18921826650952
O          -1.70537908617666   -0.19732424936680   -2.59451158840106
H          -1.84901750107810   -0.31818418639435   -3.53372508720916
O           1.31258594294416    2.56592064915699   -0.80578208539354
H           1.88807555695594    2.10483907273880   -0.17338163534145
H           0.45259067987884    2.55399032459209   -0.36727916574716
O           0.83340208281116    0.34493639835798   -2.25154413843127
H          -0.76622328372509    0.11857561422017   -2.50278004950648
H           1.03874465075834    1.23212218043962   -1.88565218218906
H           1.05449094177008   -0.28237263096706   -1.54643393848212
O          -1.35637512034441   -2.19538156120604   -0.92029973869532
H          -1.55544545287388   -1.53318820327137   -1.63119343567094
H          -0.39109327687254   -2.20258994777124   -0.83316548629094
H          -1.75116290728357   -1.39860475650047    0.29113549368722
N          -1.84853329109287   -0.74478670683576    1.16069186278859
H          -1.07934835049109   -0.98189064177990    1.82551148621032
H          -2.76962768924012   -0.77923057246396    1.58265147145374
H          -1.56151436888190    0.22639788941912    0.89488343387915
