    26
        -50.45007630  Gyration_radius:  2.5059004234 Dipole_moment: 4.982
 S           0.95281720823229    1.07273343262853    1.99000790736545
O           1.77021421658859    1.44318301354847    0.85525677429965
O           1.02337227112930    1.90012396210185    3.13418925269154
O          -0.51372031394329    0.95165824331192    1.46947839356143
O           1.26344009780383   -0.38293715786526    2.39699596372124
H           1.21136595323560   -0.98442098435155    1.59774686393664
H          -0.56393780953852    1.54173865978504    0.63813213424362
O           1.23448961963861   -1.92286079239031    0.31302772236403
H           1.81917340626333   -2.66621704638577    0.47159739732695
O          -0.08050519784201    0.39909697824811   -2.42284957786803
H          -0.39939119279691    0.42134537175616   -3.32552772228860
O          -0.30188473481842    2.36450239079601   -0.61431902223432
H           0.62550701658512    2.51438977912045   -0.38428741702638
H          -0.29193572426208    1.71351290512384   -1.35213334369584
O           2.32548428752757   -0.16615181742167   -1.21028459653905
H           1.60482381814534    0.07886388292320   -1.81703071737834
H           2.32475069228513    0.51565741343803   -0.51145259117865
H           1.71213484284891   -1.31505031091136   -0.34044231139519
O          -1.12548129412005   -1.63314658709367   -1.19941875497426
H          -1.82870072643720   -1.32316544738868   -0.57902216261159
H          -0.52284730124180   -0.39127625372690   -1.98655709948778
H          -0.39607443174749   -1.92648196403228   -0.63498054378584
N          -2.84453532507093   -0.68075001304080    0.66641919933321
H          -3.57548537072898   -0.05383026559758    0.35460454537423
H          -2.16435576791301   -0.12793859762863    1.18020726042439
H          -3.25871823982074   -1.34257879494576    1.31064246581838
