    26
        -50.45712013  Gyration_radius:  2.43846663274 Dipole_moment: 7.268
 S           0.62754861670779    0.72754439272899    2.18435324543733
O          -0.20253418795333    1.59797079751241    1.37035463718726
O           0.58108963666167    0.92329181932326    3.58998705615082
O           0.38226501681989   -0.69885551838801    1.79801717518185
O           2.10895811954812    0.98215688378486    1.65869631694882
H           1.92856027830651    1.27327387680508    0.75126215794835
H          -1.02201844075189   -1.23635237525639    1.21728567817514
O          -1.82682894164636   -1.59492418280171    0.75890794281122
H          -2.23560206400119   -2.20123409508762    1.37746586670356
O          -0.80224083586029    0.88005447395053   -2.04443851113884
H          -1.16067791409438    1.42455691638706   -2.74588119820731
O           1.59869259747397    1.49144466190849   -0.98636898920895
H           0.69200216647999    1.30134636895236   -1.32588073954907
H           1.67388418321237    2.44686970025060   -0.97084139783740
O          -2.34128703693927    1.01269703562523   -0.00075885941754
H          -1.64068400919593    1.35504577753145    0.60255050144276
H          -1.44555359371122    0.96927273198526   -1.26365467243192
H          -2.45604786082487    0.08708255831520    0.26564888757261
O          -0.56447489988063   -1.80362355229209   -1.65966350957618
H           0.82267488108899   -1.57851089033944   -0.97611056242129
H          -1.14863140991895   -1.88528879150695   -0.88178157766165
H          -0.72758454640321   -0.90484226577399   -2.00253823425469
N           1.62991677999749   -1.24197251278004   -0.35360649654679
H           2.36680346972698   -1.93280944255738   -0.26840323660017
H           1.16867213119707   -1.03810629559513    0.61958565879754
H           1.99309785396045   -0.35608809268352   -0.71418714950825
