    26
        -50.46788066  Gyration_radius:  2.39850298868 Dipole_moment: 5.647
 S           0.00721946920995    1.56365555351180    0.90185408798786
O           0.73223527815936    1.03901978413440   -0.25023883678225
O          -0.33633077355547    2.95121074914690    0.74621060989616
O          -1.18510786535182    0.71979665316180    1.15135960347940
O           0.92893685289802    1.40377993612771    2.15005937961436
H           1.25144835721447    0.47091202041245    2.14367311176128
H          -1.67600583161427    0.47463644371009   -0.26030797605107
O           1.85790379291353   -1.09216319232854    2.01227729804517
H           2.70574477716881   -1.12070506143435    2.45873327487690
O          -0.47563166207736   -2.06231365690009   -1.30826756992687
H          -0.83453948065361   -2.90260722563127   -1.59626614321862
O          -0.69113375267156    2.70614748343101   -1.86723635748685
H           0.22579266018471    2.54474805656157   -2.10816417198871
H          -0.63981207082670    2.97435472825319   -0.92003909358298
O           2.12914474234341   -1.13950178809132   -0.58083641472418
H           1.73627135952960   -0.23865069656511   -0.57047940189435
H           2.04947294697468   -1.17781429789330    1.03270258899327
H           1.44643952977150   -1.67859194198270   -1.00158371928803
O          -0.71906471283218   -1.87647319069901    1.28548318138378
H          -0.98777459685738   -0.93383440504581    1.35473919865426
H          -0.56182844438734   -2.05024961391074   -0.31068550711211
H           0.13556369658115   -1.91386276282589    1.73359189802564
N          -1.77782720540304    0.34866344149980   -1.32344358281932
H          -2.74988699555793    0.25932334776802   -1.60078548321000
H          -1.23172528859102   -0.50494630173760   -1.55964547859811
H          -1.33950476259780    1.23546593734113   -1.71270453603418
