    26
        -50.45712011  Gyration_radius:  2.43850119283 Dipole_moment: 7.272
 S          -0.34736991440786    1.14694479446080   -2.06356750528486
O           0.88119627467212    1.38974935903444   -1.32820476480828
O          -0.32923695744638    1.42170263486349   -3.45659842428550
O          -0.84539287718645   -0.23286798157161   -1.76026531572578
O          -1.42916766730472    2.07322809167478   -1.35102727668531
H          -1.04550936407986    2.14452904564816   -0.46315460631683
H           0.12108162346085   -1.46438570516459   -1.37658995208819
O           1.31819554020488    0.15009588375245    1.95897008382286
H           1.96707075034962    0.36432791271878    2.62987074847433
O           0.65998383912583   -2.22503101899795   -1.03399600716468
H           0.63970784636365   -2.89367021234950   -1.71941042421953
O          -0.50058395816666    1.99861717419132    1.22805419785588
H           0.20227915987067    1.34134679838019    1.44563797752743
H          -0.07149680057664    2.85519290650635    1.25705339870569
O           2.51702870987529   -0.33223814271955   -0.25315144670948
H           2.04599540208154    0.37514270210856   -0.75294935498849
H           1.84329675773263   -0.02939083671590    1.10843983056544
H           2.11050335890716   -1.15632511004286   -0.56375234743781
O          -0.30964687740679   -1.98444765965592    1.51340235633972
H           0.32522813473061   -1.33180189061059    1.86419177912990
H          -1.43285752000972   -1.01935021113379    1.01453020801435
H           0.07646594735988   -2.28034421180213    0.66703362639835
N          -1.99977217361046   -0.26094070803852    0.50866978766748
H          -1.81764775881488    0.64778457355332    0.94195136359719
H          -2.99219473991436   -0.46660691582145    0.49120700181421
H          -1.58715673581640   -0.23126127227635   -0.50634494420381
