    26
        -50.45344799  Gyration_radius:  2.4151937227 Dipole_moment: 1.804
 S           0.82475590001878    1.30717933076250    0.86842578507464
O           2.33321920371105    1.04518080870103    0.99766277427666
O           0.44935521145939    2.44941221201159    1.62080111071113
O           0.61730557601289    1.63775929576052   -0.63586991772154
O           0.12244899845982    0.08492768864948    1.17315804217230
H           0.15231324846920   -1.52872811154001    0.97335182174581
H           0.88914780265446    0.86379493283738   -1.22434121420673
O           0.30901323593275   -2.47056128341768    0.73605805860336
H           0.10166918386233   -2.98954340020836    1.51419345888450
O           1.21912982383948   -0.33730239199326   -2.16156825697202
H           1.21460298820196   -0.07411821711097   -3.08348536011705
O          -2.10442425807421    0.68363273691888   -0.96832302712378
H          -1.42313524643346    1.32317345348472   -1.19272973503196
H          -2.33167503930873    0.89054434945803   -0.03153832946276
O           2.65808936686597   -1.26625230236532   -0.04046266420889
H           1.96271073756073   -1.86756131519824    0.28632843265462
H           2.40725772436661   -1.06583024621857   -0.95600110716313
H           2.53847487824969    0.11317171980071    0.64322671284732
O          -0.91465950697858   -1.61257092214634   -1.64102715701154
H          -1.48501175474237   -0.85374121391354   -1.37140934609674
H           0.37595733215171   -0.90427101452114   -2.01981244472693
H          -0.68382421371055   -2.09318001828056   -0.83252487645885
N          -2.36319232627645    1.57847231984242    1.57933072783125
H          -3.05976486261290    2.24885327170442    1.88208627031013
H          -1.45096071931526    2.02263428600317    1.64060854716150
H          -2.35880331425303    0.81492399114343    2.24386169380317
