    26
        -50.45344783  Gyration_radius:  2.41481465228 Dipole_moment: 1.807
 S           0.61601911736669   -0.98073073445232    1.34173419294659
O           1.16057786095434   -2.33386306650757    0.85871418328995
O           0.59179726675398   -0.92842412709149    2.75893225096105
O           1.66080641767025    0.05653107027147    0.84410852458344
O          -0.63744298710186   -0.72964961100749    0.67405997079442
H          -1.41621644284111   -0.86205447684201   -0.74734462424003
H           1.73573905194398    0.04974952323148   -0.16276665835895
O          -1.72167879754543   -0.98845813110442   -1.67392083174180
H          -2.62174559549048   -1.31308156268151   -1.62636484542953
O           1.81946385927101    0.12881907377842   -1.71688742683548
H           2.55654879440681    0.67230028049964   -2.00073316292917
O          -0.07339423223000    2.35993336341844    0.50776011617772
H           0.78518020102186    2.00320843755799    0.75100686731405
H          -0.67290304575398    2.06399117046480    1.23236433770011
O          -0.34044771298982    1.43736505792004   -1.98509085139447
H          -0.37338459986928    1.86267014156980   -1.09505592428426
H           0.97068312233683    0.67233099572249   -1.90847400104271
H          -1.01350811794610    0.74108788939245   -1.99007226641631
O           0.67292627761193   -2.34384777908768   -1.64905912017296
H           1.24386556258722   -1.60960652775035   -1.92505190671402
H           0.96121849322336   -2.43410522387227   -0.13448375320416
H          -0.23735574663867   -2.02790126485800   -1.80247251714696
N          -1.33017668761867    1.30072601336904    2.66528682365320
H          -1.50602018526447    1.79929790113652    3.52948367045523
H          -0.64469260842892    0.57435175897599    2.85418757371587
H          -2.18585925537407    0.82935982797710    2.40013936830274
