    26
        -50.46788061  Gyration_radius:  2.39849178292 Dipole_moment: 5.647
 S           0.99959402974351    1.49203882937823   -0.18247035247224
O          -0.40052229731428    1.15825031533463   -0.42035632751162
O           1.16147017089489    2.80969864934385    0.36986330441790
O           1.60853249764917    0.44982293273530    0.67709976202597
O           1.73955640658447    1.41973579238146   -1.55369074288533
H           1.49269522158641    0.55527927327107   -1.96120398893406
H           0.49830323888290    0.20285616224996    1.67737581947942
O          -1.23774370966711   -2.03885742263843    0.70949785804928
H          -1.45265070936417   -2.91031869938097    1.04446852691986
O           0.94374127038356   -0.87583414950098   -2.65277780895819
H           1.00231065617883   -0.78749444755665   -3.60555029275137
O          -1.09294471362732    2.65084024174441    1.75073064862026
H          -1.70199024199178    2.65780415091516    1.00653659031095
H          -0.22328752652858    2.87196675222922    1.34266468711830
O           1.23465946886429   -2.03621268155508   -0.13242757838053
H           1.29077886165951   -1.95536370724610   -1.09310460260719
H           1.51756787589444   -1.15645246994497    0.20160930156913
H          -0.29686149580248   -2.09511470039818    0.37126871458792
O          -1.52279909367880   -0.73687934327155   -1.81839967033298
H          -1.24774485934670    0.08415148327390   -1.35331123866055
H          -0.03220493472898   -0.87521947874532   -2.42663052323257
H          -1.69212430108505   -1.35834267095730   -1.09813638173130
N          -0.43956162122233    0.11946400235070    2.19698971367174
H          -0.86483877417279    1.08662555321213    2.07955937240151
H          -0.30839704794712   -0.11491386349101    3.17560568702822
H          -0.97553838185473   -0.61753050374810    1.69478951226718
