    26
        -50.45344786  Gyration_radius:  2.41482299951 Dipole_moment: 1.806
 S           0.98735737069943    1.44301399675955    0.29006347749140
O           2.45663738680168    1.21898260181342   -0.09962217909481
O           0.82725199849949    2.69388841034983    0.93924534065798
O           0.23323949443265    1.51013106761961   -1.06711284025090
O           0.52725583946687    0.28535050023078    1.01674593903237
H           0.59661507647986   -1.33817300278763    1.07763437254370
H           0.32959983641404    0.64869660327752   -1.58491077000257
O           0.72347290705197   -2.30555054288190    0.95128051479397
H           0.84674252685132   -2.68420393179830    1.82260289505566
O           0.38428883537480   -0.69265674564937   -2.37633390364225
H           0.03076632643559   -0.59149078093182   -3.26180047152125
O          -2.35331903860529    0.49303111478172   -0.22911966275629
H          -1.84258213747969    1.08968629692108   -0.78290788142910
H          -2.24422286065835    0.85458451321602    0.68164342232958
O           2.54780232664663   -1.23391294025479   -0.80792034390641
H           1.97285487805155   -1.19557746432332   -1.58843733823543
H           2.58532616144562    0.24160222492110   -0.35342732448077
H           2.05906690361744   -1.77565377915941   -0.16013567567910
O          -1.32715014822336   -1.87495161722305   -0.91944012491639
H          -1.81409593899926   -1.08500682096738   -0.58330822262383
H          -0.31041136281883   -1.23302768524045   -1.84913424238066
H          -0.79011241118617   -2.20858778730578   -0.18589258692460
N          -1.74415908386905    1.80473097881649    2.06526887282033
H          -1.44594194184940    1.16387153456325    2.78985607350638
H          -2.33099987120925    2.50895259585716    2.49649406386670
H          -0.90528306338058    2.26227067939637    1.71866860577733
