    26
        -50.45344766  Gyration_radius:  2.41473174118 Dipole_moment: 1.810
 S           1.20510599014738    0.02716625531860    1.29942517287792
O           2.32345161403714   -1.00012454149228    1.06532612316788
O           1.33145257769432    0.62071252946115    2.58142100535912
O           1.46428252611136    1.13014779832678    0.23578643787225
O          -0.05979699099047   -0.60305188240872    1.01158294129232
H          -0.81645993875645   -1.62479394949051   -0.00237963882808
H           1.40552769479344    0.75914408718834   -0.70146404211919
O          -1.11929270341411   -2.23122083092020   -0.71536212070756
H          -1.69368306513671   -2.87756611454937   -0.30293678568547
O           1.24067696922404    0.24371327426239   -2.16276893510818
H           1.53183296231381    0.89826060220777   -2.79996792730583
O          -1.25776410000143    2.05444870554717   -0.16599292477650
H          -1.51237029950713    1.83445497634300    0.76073647898876
H          -0.31889485918308    2.25249954715479   -0.11237177964789
O           1.61085671819050   -2.22289057374767   -1.06173447665280
H           1.66194763464424   -1.48778146476141   -1.69281058519579
H           2.08758318910654   -1.56414954242461    0.25148098007542
H           0.66193105275181   -2.44271961909091   -1.00587242541405
O          -1.29779842700801    0.20817950504793   -2.09642638976604
H          -1.48962924866181   -0.65419068221157   -1.69974224871988
H          -1.44200385070426    0.88618525747330   -1.39382739113911
H           0.21685215549464    0.21886184325531   -2.22315594180571
N          -1.47873705211104    1.49462920531080    2.47862942073197
H          -1.78660997792392    2.15502264798293    3.18246452088158
H          -0.49402961895586    1.29965339213199    2.63835786970644
H          -1.97443096223109    0.62540955412095    2.63160267192577
