    26
        -50.45344802  Gyration_radius:  2.4151363567 Dipole_moment: 1.803
 S          -0.40087787541433    0.71740567911116    1.57077540739115
O           0.06520517765767    2.17818551740307    1.66781427474418
O          -0.88699676146061    0.26335070670278    2.82346193050839
O          -1.59846620900229    0.75863693962091    0.58111897168879
O           0.65963628548516   -0.06078016807467    0.97946777067909
H           1.81046405467452   -0.04778613078184   -0.16922090366768
H          -1.31474635214975    1.09561115407839   -0.32731420934584
O           2.42568746653911    0.11594838181156   -0.91926701314381
H           3.28059021765059   -0.22615133445477   -0.65479746218988
O          -0.90009172469794    1.53165792232385   -1.76523214419425
H          -1.66683911612488    1.67872481745485   -2.32173252069166
O          -1.37789385814916   -1.90503687560251   -0.55342240190348
H          -0.99976356439353   -2.26987481145831    0.28081043236504
H          -1.93512468982229   -1.17831903633954   -0.26202960810366
O           1.28988169519648    2.59232360839124   -0.53551133892122
H           0.60671200352775    2.40837361190435    0.83707854477232
H           1.87723247316416    1.83665409027189   -0.72514583182232
H           0.54677838455540    2.49407044894818   -1.15147782128958
O           0.16242377448722   -0.69432629231619   -2.37050702967507
H          -0.46945921032715    0.66019735225330   -2.09312750011001
H           1.05816963080211   -0.60740393240771   -2.01265032041807
H          -0.33910265202791   -1.27683137351020   -1.75162586746679
N          -0.56710462776095   -2.53274006462687    1.95781806500004
H           0.43652417350368   -2.65594697123063    2.00417809050100
H          -0.99406227291780   -3.24757600261721    2.53490030352702
H          -0.76877643326117   -1.62836722659788    2.37563818179157
