    26
        -50.45344803  Gyration_radius:  2.41513535513 Dipole_moment: 1.802
 S          -0.37752938142535    0.89903084148468    1.48031597245222
O           0.87538141590853    1.54330361368144    2.09332225221153
O          -1.49144541354595    1.04979216129739    2.34528562070279
O          -0.65305833420979    1.73304119077774    0.19824842099626
O          -0.05154138443472   -0.45090932581060    1.09134968226372
H           1.10547993651911   -1.38020451100923    0.42647845680760
H           0.11943264560443    1.67947862240447   -0.44957425194753
O           1.25414090990281    1.55462457364335   -1.51087528572831
H           1.13078543667749    2.17554236253076   -2.23090690831586
O           1.88859337724104   -1.78234466887087   -0.01276451619722
H           2.04752250353487   -2.62169669395621    0.42088989519504
O          -1.91485319628065   -0.30556483752177   -1.43948182540102
H          -2.28541134177750   -0.76461216945383   -0.64955217977699
H          -1.85666613708150    0.61550733551600   -1.17156368470955
O           0.57851513829118   -0.76938047791759   -2.28061146283924
H           1.02250008930958   -1.34398398727924   -1.63978895416228
H          -0.37557332128002   -0.74251024527382   -2.02981485730868
H           1.03530612289841    0.62685072112493   -1.89013300109788
O           2.78540867858678    0.74698940083098    0.59534878277352
H           2.68356565744031   -0.20786974877150    0.42278806010309
H           2.52899548330934    1.18114821091006   -0.23352995039924
H           1.69421123222889    1.23397544185722    1.57357597007811
N          -2.89665272021293   -1.12986446936578    0.95094193707590
H          -2.55607303691897   -0.34193452104684    1.49530733027974
H          -2.40905513134014   -1.94917970738118    1.29090486054979
H          -3.88197920918921   -1.24922908239238    1.15383961646141
