    26
        -50.45739057  Gyration_radius:  2.46411062068 Dipole_moment: 3.065
 S          -0.02552194858395   -0.51526976778997    0.94899223974943
O           0.83298761430027   -0.34215258925155   -0.24831805313361
O          -0.42653199031052   -1.90333335347508    1.07694455185992
O           0.86100830840615   -0.11390169562929    2.16118599449553
O          -1.14991726545894    0.39675273343687    0.89793364863108
O          -2.42586276747123   -1.45549204440260   -0.59397514806180
H          -1.81084993350648   -1.93715108807530   -0.00088333266121
H          -2.60879510810345   -0.64942407035563   -0.09025223311638
O           1.78212877961996    2.09464996017039    0.41125925156274
H           1.77426532346062    2.00206830555993    1.36704725716512
H           1.58879918328155    1.20515603827663    0.06589328845740
O          -1.29845390929563    1.82810091249893   -2.61657636262122
H          -1.04654417105384    2.27545068517928   -1.74205521279593
H          -2.23574894752439    1.98802361007501   -2.74122998957483
O          -0.75613760196720    2.75414494977992   -0.28618864476605
H          -1.01964070507809    1.97889028112792    0.24885507004976
H           0.20863031820915    2.81525334495845   -0.14733964977514
O          -0.67566565553211   -0.56596325234801   -2.21309665960780
H           0.06086569244551   -0.48689098901298   -1.47281478023331
H          -1.46775098229409   -0.98155314446774   -1.69961346118603
H          -0.93311128589279    0.43169501487047   -2.45515576982557
N           2.27101460656018   -2.25505780040831    1.84325448016304
H           1.39038949616100   -2.63729751773232    1.50649135059515
H           1.53417745861374   -0.86480420438629    2.21105270490575
H           2.67713868175155   -2.89483239476467    2.51351582884150
H           2.89912682927689   -2.16706195381634    1.05507364087527
