    26
        -50.45344798  Gyration_radius:  2.41515825007 Dipole_moment: 1.804
 S           1.08856414573841    1.13095227955016    0.82397708542159
O           2.53960458730152    0.62598188257026    0.83058789770823
O           0.96080195491568    2.29565584510234    1.62327022869517
O           0.82686003730686    1.53551851499776   -0.65354803940665
O           0.22133279158342    0.02911012988768    1.16122374382713
H          -0.02615333387083   -1.56157026557768    0.93193755838907
H           0.92439088656873    0.74586314132715   -1.27505807557488
O          -0.04276937906633   -2.50891044149368    0.66689927717150
H          -0.27378999457312   -3.01049936514084    1.44976822397210
O           0.98367538553996   -0.46382185567540   -2.25611048804891
H           0.95284101465475   -0.17591782883562   -3.17009547006866
O          -2.03116021663024    1.04135794601139   -0.78871986707912
H          -2.15150200997305    1.25422227696395    0.16637640048139
H          -1.27376737520737    1.56968069476064   -1.05479433036223
O           2.40633256845350   -1.67536446855314   -0.27056370559156
H           1.64870107983637   -2.16655935676378    0.09909847234921
H           2.12419889406508   -1.41011670063591   -1.16011966636916
H           2.56364735014723   -0.31565955810397    0.44459394862085
O          -1.28390422229516   -1.39512703276792   -1.59205155306428
H          -1.07465585000320   -1.93035934380586   -0.81249802008790
H          -1.70173138605405   -0.56288638221369   -1.26551423769506
H           0.07266949209051   -0.89208337575118   -2.05840672259885
N          -1.95103697505401    1.89012549868138    1.78636905863883
H          -2.50478908068184    2.65447575609205    2.15435375968822
H          -0.97669449664547    2.17964146637368    1.78396669351505
H          -2.02166588821313    1.11629057309245    2.43505783742907
