    26
        -50.45344800  Gyration_radius:  2.41517677036 Dipole_moment: 1.802
 S          -0.20467065353813   -1.29293135701124    1.19571685434681
O           1.09102032281421   -2.09289221567526    1.40034444972928
O          -1.28091647351578   -1.89702059208701    1.89463735159661
O           0.08179551292660    0.08319605427112    1.85860006914097
O          -0.39733676902389   -1.09218987368682   -0.21938825079550
H           0.37193603457563   -0.75590767148142   -1.61198210129758
H           0.85625319077293    0.55318899294443    1.41291610361885
O           1.99230078723507    1.34670307379755    0.69925698140567
H           2.24300804195670    2.12564064795559    1.19887952816834
O           0.98282459236987   -0.52010006211512   -2.34625181867811
H           0.71958581117574   -1.04462975057131   -3.10349443027394
O          -1.62789518974249    1.76982667556447    0.22651195847565
H          -2.26919031330286    1.03659598160135    0.07438517645805
H          -1.24438656349758    1.57363036209590    1.08556980439583
O           2.72115675848686   -1.08717451056431   -0.29008979701610
H           2.79361555299397   -0.19043116417297    0.07303442866124
H           1.78396310131675   -1.77858466309633    0.72409275759185
H           2.26942859078449   -0.97703794955797   -1.14784867904162
O           0.56180051753555    2.04313240869336   -1.28039527499216
H           1.47829349718336    1.68457482959735   -0.12174919632723
H           0.63071973475109    1.27961319468416   -1.87224518818192
H          -0.32601537551636    1.99553300589210   -0.85216729145398
N          -3.21432471903924   -0.43042765360779    0.22706767105592
H          -2.67260511902367   -0.96555609683438    0.90035887350145
H          -3.15815972288417   -0.92928689396845   -0.65189824965351
H          -4.18220114780461   -0.43746478266877    0.52613827958150
