    26
        -50.45564916  Gyration_radius:  2.41817227721 Dipole_moment: 3.081
 S          -0.83958553348719    1.33899675030306   -0.85026546945245
O          -1.13927314112149    0.73219976013186    0.42436231403297
O          -0.96995335370359    2.75522917278133   -0.90171350311937
O           0.56583227591212    0.88830182212591   -1.28762455276774
O          -1.73448558455479    0.69260611900705   -1.93324372450647
H          -1.67764385178113   -0.29877486452058   -1.82620025434310
H           1.22903764164583    0.94149398609628   -0.42862080291154
O          -1.58078932575626   -1.88765116798030   -1.55177808996903
H          -2.40370977009888   -2.30891779610453   -1.80631149136255
O           1.44713402017981   -1.74832585540601    1.04542406932478
H           2.18636105314825   -2.28571231556446    1.33351401107572
O           1.92785839918432    0.93386217937933    0.76128558125046
H           1.71793690484970    0.04349367707689    1.10729659139007
H           1.39134918954756    1.61441639855379    1.27020969324397
O          -1.32232368648870   -1.83484237658431    1.01551105390043
H          -0.38703007321210   -1.99589524292706    1.22000097181330
H          -1.39314889322311   -0.86002711125405    0.99599715718661
H          -1.52281671575174   -1.95625669746528   -0.54520592258496
O           1.20134117642215   -1.79375908298861   -1.59500065975717
H           0.29490728868886   -2.07965632771914   -1.77610568576691
H           1.19930913805243   -0.83922419269051   -1.75761688076435
H           1.42087206581247   -1.82095475490641    0.05577362077914
N           0.31827352468430    2.78094744222974    1.72625999840232
H          -0.41059631221475    2.32120729479974    2.25821910403506
H          -0.09970024221150    3.03695451789879    0.83428988319035
H           0.58084379548431    3.63028866574308    2.21154300768743
