    26
        -50.45739051  Gyration_radius:  2.46417011807 Dipole_moment: 3.076
 S           0.13511150922607   -0.06938822851090    1.06856527497232
O          -0.30557628660064    1.04644159164455    2.05697158170649
O          -0.92500310461331   -0.12701853657134    0.03261714512695
O           1.39531921241579    0.33190480071527    0.47705617994853
O           0.21535458956456   -1.33698326798731    1.76898568877441
O           1.01063737377010    0.10051722996598   -3.29328013315931
H           1.89945716405215   -0.11260667892396   -3.58360375072205
H           1.09350881491504    0.91648623687818   -2.69698101076136
O           1.79225390287114   -2.26333445623122   -0.14121687720678
H           2.27313327858244   -1.42519069644814   -0.08403558967344
H           1.24610179932095   -2.24610117086140    0.67289613666523
O          -1.08099072584567    2.53258912064147   -0.38747187824977
H          -0.86131224569846    2.83501858668666    0.49709271276986
H          -1.19328782278472    1.56877087294070   -0.30834070117257
O           1.29017226413882    2.00561872016471   -1.59753692346230
H           1.48654319321512    1.47116075217330   -0.80226693743731
H           0.43147878914650    2.42257613200690   -1.39128983379738
O          -0.04131483654835   -1.59183868163506   -1.77299078344920
H          -0.53360544797230   -0.99072957136339   -1.07086319540129
H           0.37687231028379   -0.91555990226975   -2.47168887716576
H           0.73152694621057   -1.99538054263886   -1.22182301607870
N          -2.21412357575078   -0.46521981311059    2.92028599878557
H          -2.97946991927574   -0.50568470910747    2.25992623621940
H          -2.57950334487241   -0.61341373483868    3.85197660312199
H          -1.55989090387656   -1.21093012425261    2.69460937740550
H          -1.10339294387545    0.63829607092463    2.52240658223269
