    26
        -50.45564899  Gyration_radius:  2.41789017991 Dipole_moment: 3.084
 S           0.64815170280316    0.36409832558216    1.63331043775280
O           1.35017200796102    0.19089048298636    0.38433202846219
O           1.12475399366810    1.41577016060263    2.46518437451060
O          -0.85297737722807    0.52318756862210    1.33188405234737
O           0.67869809309253   -0.97186229662579    2.41167489886387
H           0.41103187132769   -1.69986509094189    1.78241871351280
H          -0.96639023704664    1.19189324567127    0.48289370090636
O           0.02702571528306   -2.82711877644915    0.69125280186459
H           0.46756400682733   -3.65002031798561    0.91079306173082
O          -1.17086244237123   -0.32839832778359   -2.18229542839568
H          -1.79119556767502   -0.29983742600672   -2.91208248057785
O          -0.96433645193450    1.94731518992976   -0.67176175526906
H          -0.08271386458988    2.41607192565539   -0.55864197697470
H          -0.86911016831875    1.25726240979946   -1.35838790194445
O           1.08208109028971   -1.73897840766254   -1.39768593870966
H           1.40036319731099   -0.99958170897360   -0.84301686396646
H           0.45214171962361   -2.49292821716628   -0.16248232183513
H           0.36356705093629   -1.34578143288441   -1.91885029793074
O          -2.26904259118909   -1.43043892393044   -0.03460658471598
H          -1.65220213810955   -0.75489396991680   -1.42607526860673
H          -2.08176175550397   -0.72573363585862    0.60259391441318
H          -1.68721976464453   -2.15979002384287    0.22171021948508
N           1.35247029424270    2.99610359967362    0.01163275636925
H           2.08581995898185    2.46439893896947   -0.44129839218523
H           1.33191149402313    2.68322746115902    0.97985546245098
H           1.61206013223784    3.97500926742553   -0.00235124164287
