    26
        -50.44506469  Gyration_radius:  2.49517709785 Dipole_moment: 5.631
 S           2.01613543528835   -1.12799574659889   -0.57337428863447
O           1.86155662897496   -0.09004936683433   -1.55301617211276
O           3.20776206254506   -1.89089533348352   -0.56464006658572
O           1.78515575112002   -0.49128788445679    0.84005591625999
O           0.80603902753261   -2.10000659138407   -0.67068563112395
H           0.00662470106298   -1.63110803980761   -1.04877600130462
H           1.77850573715428    0.50919285765288    0.76607168276361
O          -1.27406065633041   -0.95586665830692   -1.72297528608363
H          -1.48195965242267   -1.42368006150936   -2.53332359084298
O          -0.98534051405557    2.29570989172040    0.24918839939931
H          -1.62370292412534    2.99623695137472    0.38672166179572
O           1.61143716642750    2.07060465309106    0.84579782298618
H           1.73288881359937    2.37564372434073    1.74722906200121
H           0.67131145365717    2.23089994644641    0.61373415783215
O          -2.17205779969572    0.04059858564314    0.73095227158611
H          -1.45306888444880    1.43809544997139    0.48319670281427
H          -1.66104745933135   -0.55130647968864    1.33525117076912
H          -2.12202206924595   -0.39009706349785   -0.13350788324799
O          -0.27456563979265    1.35279383272230   -2.25964940610707
H           0.63608509437203    1.02338773925624   -2.14347758708370
H          -0.94459043462421   -0.03991284677789   -1.99997323880157
H          -0.47662569877092    1.86610541269296   -1.45881876784070
N          -0.61028889798860   -1.69828820408136    2.09247954277523
H          -0.62813798660222   -1.85652892179391    3.09217299693377
H           0.31391009900086   -1.35675816615168    1.84433560130390
H          -0.71994335330800   -2.59548767054994    1.63503094054859
