    26
        -50.45564918  Gyration_radius:  2.41810333622 Dipole_moment: 3.085
 S           1.21899481436299   -0.05474098291683   -1.31749952737586
O           0.42841450572600   -1.12369274053423   -0.75619032759160
O           1.37027457923000   -0.08041831766598   -2.73230404456240
O           0.63565964809094    1.28737233070921   -0.83947012382683
O           2.61063375482636   -0.05680047661450   -0.64303855015895
H           2.47193762057089   -0.11008005034943    0.34457071522375
H          -0.44682783424388    1.24176014287508   -0.91657661946123
O           2.16700964377790   -0.25763830276448    1.92417539275046
H           2.88428860827788   -0.73286637858863    2.34739760085344
O          -1.76853637991050    0.38129070180052    1.72301077693224
H          -2.47702717062599    0.74439612807504    2.25631131604608
O          -1.80725853294596    1.00836204656205   -0.94317179759075
H          -1.83592897870558    0.28877542604601   -1.64399741439915
H          -1.95402809842933    0.60055137115321   -0.06634609652459
O           0.04196631145992   -1.71590389382611    1.78777400051204
H          -0.72159167730978   -1.13846640115208    1.94922870363588
H           0.12271002809848   -1.73030710213953    0.81363116555673
H           1.36018276971956   -0.86509233090393    1.95945327873189
O           0.40428395664235    1.89592840021428    1.85648945991600
H           0.54914586127710    2.02643825880536    0.90803121924706
H          -0.99759996485145    0.99757628088358    1.82957033400920
H           1.12219909621944    1.31266843413148    2.14043597250313
N          -1.46715945258273   -0.79492365259019   -2.83184530242137
H          -1.99170499566806   -0.88993423673275   -3.69309824121600
H          -1.40727873784363   -1.70517179817711   -2.39178469545528
H          -0.51275935519427   -0.52908286650922   -3.06475721537951
