    26
        -50.44506445  Gyration_radius:  2.49536462151 Dipole_moment: 5.639
 S           1.92683455540603    0.05298717997697    1.39789211740836
O           2.40827347393412    0.27763894687602    0.06421305163478
O           2.82935111924034    0.16789471931473    2.48156582374446
O           0.69858367909128    0.99846568892283    1.63000278716074
O           1.25038863174671   -1.34594874307455    1.46247341260588
H           0.91484471898362   -1.61741689056794    0.55944525920388
H           0.64386140880966    1.67412362247218    0.89038670622734
O           0.43322118470580   -2.13582776332758   -0.87255967870260
H           0.91106666117269   -2.93790395387221   -1.08937063792474
O          -1.09332334435385    1.20047538477172   -1.91394455986479
H          -1.70674474486107    1.40965084818594   -2.61898655122223
O           0.31140525192213    2.72788176568704   -0.22773928913451
H          -0.27695050763450    3.40447331909830    0.11346699863119
H          -0.19313377334482    2.22355708019424   -0.90194898373194
O           1.27779941456867   -0.17977085275832   -2.31432875867366
H           0.76687212925551   -1.42474665045659   -1.51072390046578
H           0.51651865767634    0.42523429275384   -2.32319070310827
H           1.86286347636285    0.13732559583303   -1.60135117595328
O          -2.03521462750693   -0.84465022910045   -0.62756006212629
H          -1.49914960716970    0.43550826459948   -1.40465851510724
H          -2.04922440248496   -0.71871565285171    0.35262448329730
H          -1.34257760398134   -1.50217261333434   -0.78018845704177
N          -1.74269773589111   -0.62182848226110    2.05197678219094
H          -2.44870999458952   -0.29795045212192    2.70112762403818
H          -0.95195393506595    0.01415702148503    2.10375127537483
H          -1.41220408599597   -1.52244143644209    2.37762495153552
