    26
        -50.45564917  Gyration_radius:  2.41797953338 Dipole_moment: 3.085
 S           0.72928841960394    1.43810860278402    0.78891604972412
O           0.60279750725165    1.12868533547917   -0.61507297547609
O           0.48208941914478    2.79402365875313    1.14345114864519
O          -0.17223132444288    0.47659132429657    1.58416830908235
O           2.14032182826912    1.02239944360872    1.26578703966211
H           2.31170784200717    0.09321052826002    0.94186955219576
H          -1.12808506339007    0.39648747123884    1.07337765131024
O           2.53710367307729   -1.38544994930635    0.33254526269151
H           3.46902791995570   -1.51993422602647    0.15118015066081
O          -1.22795285816100   -2.00676796094147   -0.84152970660569
H          -1.84475198230017   -2.73014707900388   -0.96192991561479
O          -2.24032720651150    0.28590605329499    0.26458810065406
H          -1.96943189951963   -0.42855822573152   -0.34594922155615
H          -2.17971214615190    1.16526112414358   -0.21821105567946
O           1.19532332214878   -1.12468742354386   -1.85662787617677
H           0.34460350177292   -1.57653572805905   -1.73586925965148
H           1.00275760432361   -0.19596423521298   -1.61957816574304
H           2.07247872528801   -1.35110548642078   -0.56418088979655
O           0.13279099938183   -2.27469593328091    1.41914468817805
H          -0.05195315433930   -1.40542495560849    1.80365862970118
H          -0.75948337199719   -2.18202731443981    0.01592447151530
H           1.06873553592334   -2.24592880077624    1.17556098244554
N          -1.76318268788531    2.67627704047603   -0.73103442944900
H          -1.09152751567943    2.95753510140318   -0.02001876038528
H          -2.42488853035112    3.43177170960596   -0.86241036865933
H          -1.23549854751227    2.56096993500891   -1.58775939145401
