    26
        -50.47163765  Gyration_radius:  2.37107526504 Dipole_moment: 7.013
 S           1.20950782631646   -0.94649782420748   -0.08985946932447
O           1.80961462568206   -2.27940973010455    0.37807991695064
O           1.27327657076186    0.01442596051109    1.01643446522056
O           1.97764090007959   -0.46999616283079   -1.23085205073395
O          -0.19031327261824   -1.17347959726173   -0.46401456569554
O          -1.77868472004700    0.74624498239008    0.55889995868319
H          -1.19699054361137    0.01250698632451    0.27863055831646
H          -1.20240430807025    1.51205812974152    0.66282879573476
O          -0.61944804805197   -0.70379336517054    2.77321099437714
H          -1.36290716771815   -0.23643223234714    2.36924823988746
H           0.17162101909170   -0.38629490419849    2.29699710433124
O           0.57851253011445    2.42177847086899    0.40951707284693
H           1.07454042209836    3.05168897394491    0.93443644626378
H           0.89852404469913    1.51994944111398    0.69029354332850
O          -1.67940632630673    0.24079034400639   -2.20781153419570
H          -1.23389891186117   -0.53021188222637   -1.80852356121982
H          -2.21487976703251    0.59460015864465   -1.48141809152075
O          -0.33248042317918   -3.04759427822711    1.54934246327806
H          -0.48678012012852   -2.31575472784547    2.19443831325993
H          -0.84991189601729   -2.81016583185698    0.77132191405602
H           1.06522398800547   -2.70322340167229    0.90713713425617
N           0.61995490050032    1.52612933909538   -2.12780236202424
H           0.97187762591229    2.02501846696473   -2.93767705443634
H          -0.34921190863598    1.11616927912951   -2.29756331253578
H           1.25504757765531    0.69503864333771   -1.86703284860130
H           0.59197536236992    2.12645475186085   -1.27826205041670
