    26
        -50.44506451  Gyration_radius:  2.49534992582 Dipole_moment: 5.639
 S           1.56473461928955    0.26564723604063    1.77481729892870
O           2.35006938665752    0.15473940153993    0.57824237806659
O           2.21222843974514    0.57545525313766    2.99413657668077
O           0.42230395199946    1.30379812114435    1.50392491482233
O           0.74717816253384   -1.04344822326154    1.96639431136581
H           0.59256927439048   -1.49451885918015    1.08646550769851
H           0.60429215307349    1.79585933806164    0.64876219776171
O           0.38702892014466   -2.29840232790228   -0.27848188972529
H           0.81323019048103   -3.15359211148068   -0.20299175772331
O          -0.50993021299381    0.79112165164665   -2.32677637401495
H          -0.92656325890240    0.86688681340652   -3.18574938022376
O           0.64024235848826    2.58419862167803   -0.71089626947855
H           0.06536433703427    3.35111456303620   -0.66912883593602
H           0.24701504625158    1.96749233143416   -1.36553319240357
O           1.73142118008425   -0.77037896636549   -1.85183814271954
H           1.05929493213042   -0.14290129212088   -2.16829651495400
H           2.17465197133786   -0.33151042553977   -1.10206280508288
H           0.92677884162043   -1.77019921621173   -0.95222761252043
O          -1.92406311008945   -0.85341930012237   -0.90530066446724
H          -1.28871473628603   -1.56533710734771   -0.74781645213423
H          -1.09694435594140    0.18546581737945   -1.78109329733475
H          -2.14070131482374   -0.50770761467195   -0.00510972421376
N          -2.20841087445265   -0.04465019670467    1.65991978116732
H          -3.00250999372021    0.45486303331053    2.04036830303056
H          -1.38676257890808    0.54374555339819    1.76538376807043
H          -2.05380333914006   -0.86432208430109    2.23488789533981
