    26
        -50.47163764  Gyration_radius:  2.37106930242 Dipole_moment: 7.017
 S          -0.52378186498650   -1.29519007310504    0.64438456125458
O          -0.30748526775594   -2.33284777142198    1.75447171989819
O          -1.04932766319237   -0.06428373069392    1.24439161611835
O           0.76863396582046   -1.01942817166734    0.00828585095546
O          -1.46723172371612   -1.84158400293041   -0.32011140102695
O           1.12889968213942    1.62983071926921   -0.31856107769205
H           1.01654954671011    0.68283830150301   -0.10443035716209
H           0.23781191218096    1.99438567022297   -0.36817510503566
O           0.99500271157870    1.10885832599805    2.52046810405260
H           1.36202493781663    1.59447869971483    1.76962030992037
H           0.14031801795497    0.75763399665381    2.20491272683433
O           1.21627536137900   -0.14547817015130   -2.50064939409441
H           1.26300369506387   -0.72671556330450   -1.71810136809859
H           1.50780247151838    0.71474781360309   -2.16212845779162
O          -1.76177048787149    1.75118055781817   -0.44187209334223
H          -2.49771076475038    2.25646457580605   -0.09339551582932
H          -1.54369922973007    1.07036759512496    0.25344587861867
O           1.95435701949366   -1.37130242587186    2.46888565968988
H           2.23759813097515   -1.34144334691177    1.54777657996545
H           1.71894270307538   -0.43940127051208    2.69615386454169
H           0.56577701200658   -2.05640490073692    2.17216713471235
N          -1.41011328676735   -0.17779990213734   -2.28500832561689
H          -1.49699031735208   -0.95695777809221   -1.54511873045367
H          -0.37789761252588   -0.13209155938679   -2.54683998732482
H          -2.00143047305066   -0.35905240399138   -3.08883858205673
H          -1.67555846596468    0.69919483505248   -1.79173362099257
