    26
        -50.45326774  Gyration_radius:  2.4614228437 Dipole_moment: 2.213
 S          -0.78537209934396    1.37808971731786    1.09949356406985
O          -0.70358917686549    0.86230494140467   -0.24329543372564
O          -2.09283346619189    1.55780380142964    1.62753211487187
O          -0.00640483884255    0.41933132546225    2.03929659366941
O           0.00158973201365    2.69512440179010    1.17805431849074
H           0.71492411556679    2.69911521417092    0.45668149602555
H           0.60140658102052   -0.19829191834469    1.52756071701206
O           1.46484926384471   -1.27776176527570    0.79326262949617
H           1.82570914438350   -1.90591137263127    1.42142038472437
O           1.84363991185434    2.64042233022597   -0.58452483468381
H           2.68312956541315    2.92901524679193   -0.22071992001825
O          -0.20097803927809   -0.45963132016647   -2.46501520789692
H          -0.44767721872585    0.07409042137772   -1.68251085779290
H          -0.64960031839216   -0.06384808228225   -3.21336614769395
O           2.28491685583095    0.18954169367615   -1.40379174917326
H           1.99399697042928    1.72138420333674   -0.94478632967703
H           2.17206650946245   -0.34929958249333   -0.60566596709349
H           1.54712906257467   -0.06770639190087   -1.98098143857075
O          -0.47155937511649   -2.38736855190805   -0.44153654895256
H          -1.25301050001892   -2.02430929984195    0.04977291425560
H          -0.45509231760167   -1.92978609204347   -1.29507893295013
H           0.72311253182500   -1.76883653054194    0.28982705994837
N          -2.50000361781550   -1.30805224596120    0.99162385569562
H          -2.34046452718287   -0.30828221576654    1.07976159799947
H          -2.52552468382100   -1.68513468273514    1.93167845882352
H          -3.42436008499456   -1.43200321509528    0.59530767312648
