    26
        -50.44506435  Gyration_radius:  2.49527398146 Dipole_moment: 5.640
 S           1.41759950565345    1.13979318770591    1.53554586462188
O           2.12437754355194    1.13400006397230    0.28605255493047
O           1.94916820050161    1.87558923879067    2.62092436286489
O          -0.05280029299320    1.60269265798994    1.25246343815180
O           1.19090468218388   -0.32840703928187    1.99551633711524
H           1.18458873271150   -0.94748918290037    1.20913732110843
H          -0.12096357002009    1.97340532391170    0.32263434377547
O           1.24725904526272   -1.98968781666502    0.00033255562379
H           1.97867748731343   -2.59181215929070    0.14592531948864
O          -0.89150111157287    0.12721795269101   -2.34183636107729
H          -1.34544848171831   -0.10906563627304   -3.15131451362228
O          -0.46497523532865    2.47152635821031   -1.12834975910968
H          -0.61412409242626    1.64937839579464   -1.64338825041158
H          -1.29303708653362    2.95599318352485   -1.12880635912993
O           1.80372022823773   -0.35760262116763   -1.90865128249192
H           2.07410442214429    0.33795343399074   -1.28072824630537
H           1.50239404134963   -1.41931506573126   -0.79578508224444
H           0.92422635454333   -0.09736259920528   -2.23182179403800
O          -1.47332123116725   -1.66296053093623   -0.55810020594920
H          -0.60219180317752   -2.04117528735584   -0.37523479030854
H          -1.16539186435299   -0.55353895034929   -1.65577463605965
H          -1.76463651888044   -1.27731919138833    0.30399642910281
N          -1.92984546543127   -0.59686568020309    1.88537443687703
H          -2.83790284477018   -0.37874460652704    2.27598396017292
H          -1.40093752089267    0.26792001464379    1.81620878215309
H          -1.43994313417591   -1.18412346395301    2.54969560475175
