    26
        -50.45564923  Gyration_radius:  2.41822870386 Dipole_moment: 3.082
 S          -0.17604745082676   -1.46565606923607   -1.02127687566717
O          -1.12491889314452   -0.40853447694985   -0.76658101515930
O          -0.12527777142844   -1.93502001758325   -2.36376900407936
O           1.21022555349064   -1.00571869052124   -0.53446898533277
O          -0.47510848877247   -2.64491917808714   -0.06678632443640
H          -0.57351567982399   -2.27554876398043    0.85612574170598
H           1.36344356200123    0.02258997900764   -0.84796244040997
O           0.56439472933084    2.03682913214724    1.33383899539513
H           1.00766036313421    2.78327863506470    1.73951274841763
O          -0.77758610476247   -1.59573348590970    2.30645024470725
H          -1.40273427168957   -2.11181630792102    2.81857229613790
O           1.37815706525422    1.35957268405158   -1.19349537261842
H           0.94036246212707    1.76754271227602   -0.42000324084620
H           0.72827886988578    1.33744642760826   -1.95957310398462
O           1.65466734122857   -0.25699832010285    2.09853815098735
H           0.93438434097113   -0.78916410536022    2.46476522712666
H           1.02466955288916    1.22456724502703    1.67094623342530
H           1.82474842739657   -0.63565280485132    1.22376270573093
O          -1.81959374479415    0.64186844572328    1.55387551205371
H          -1.23227868854501   -0.71719601236665    2.09945813842378
H          -1.12894069004258    1.32186409433914    1.61012270830620
H          -1.77744094781100    0.34165722123722    0.62440303534214
N          -0.31330279816709    0.87757144082247   -3.15357914977456
H          -1.24966991314001    1.06570910647933   -2.81679174309833
H          -0.20592348847706   -0.13440061154732   -3.14316689542727
H          -0.24865333631038    1.19586171059060   -4.11291759688430
