    26
        -50.45564920  Gyration_radius:  2.41837074803 Dipole_moment: 3.082
 S           1.66632427967809   -0.40848634609366    0.53037574368281
O           1.01719786863975    0.87893231542904    0.46737439178781
O           2.47603117669471   -0.63232818867090    1.67905086314047
O           0.59536582882212   -1.50378784993030    0.37628531877715
O           2.51065551728004   -0.60465889492827   -0.75012399646272
H           1.93563499438917   -0.37588278021102   -1.53421545735380
H          -0.26225513245570   -1.23762874393001    0.98633232166471
O          -2.40671704690278    0.27669706405106   -0.61519906440572
H          -3.35096852135096    0.16257635160541   -0.73177597776116
O           0.96337620955274    0.06883569514085   -2.74431595556960
H           1.48676922513489    0.43566330046882   -3.45911673075915
O          -1.32878829744923   -0.72262206184832    1.69743896315301
H          -1.76389011720358   -0.16409894676905    1.02283868613515
H          -0.82832767930832   -0.12948299114009    2.33565926864029
O          -0.36735124380826    1.91481376620170   -1.52784816677016
H           0.16981711904859    1.76462375882748   -0.72492638932584
H           0.43024124132975    0.83493562472984   -2.35650902792363
H          -1.23636570424817    1.54770923715936   -1.29826700803307
O          -1.04933139974721   -1.63612827924070   -1.85351036504056
H          -0.50916941601161   -1.93723919979454   -1.10849909487609
H          -1.97450800692241   -0.46930776203244   -1.10714536209634
H          -0.42960242175419   -1.18621880856223   -2.44489437079126
N           0.33450099444113    0.65406930880979    3.20544728241230
H           0.33217085064031    0.72524604562988    4.21571775100973
H           0.41364719289875    1.58691871460006    2.81920517198043
H           1.17554248862844    0.15684969046350    2.92062120480545
