    26
        -50.46788065  Gyration_radius:  2.39853821936 Dipole_moment: 5.648
 S           0.52922613095642    1.00521189027330    1.40297758923315
O           1.14642210482474    0.58628695934614    0.14931716579074
O           0.86279513407699    2.35988992255713    1.75114263304570
O          -0.93558041663457    0.79761377278508    1.31704636594890
O           1.04445874788159    0.04949875882759    2.52307118859803
H           0.92063832082301   -0.87010286293857    2.18637159595032
H          -1.21979254752605    1.26646796008174   -0.09455321190646
O           0.79235310141055   -2.40464355153501    1.51067276289980
H           1.44526936417074   -2.96892069432790    1.92813596113409
O          -1.08634602958480   -1.06772397553841   -1.96760773691681
H          -1.71846418854387   -1.50041342313335   -2.54293613588967
O           0.91626271181455    3.13654377404654   -0.78043959194741
H           0.90736757208056    3.03991366572931    0.20063410624555
H           1.69611851083431    2.64269619142910   -1.05038053684044
O           1.47935474762352   -1.76857239497106   -0.92322024905926
H           0.71812483053324   -1.75842371293734   -1.51833806413267
H           1.52709038175839   -0.84318902329857   -0.59560958197138
H           1.10068116112559   -2.26246869086216    0.56818189263071
O          -1.68875670266290   -1.60405706023081    0.51644536626293
H          -1.03387725646813   -2.17911740485552    0.93243892304602
H          -1.52438995850933   -0.72150532205122    0.91599833743563
H          -1.33762522761211   -1.32647325305450   -1.03340998081791
N          -1.17258915881622    1.54087748392568   -1.13339907195682
H          -0.32759856485505    2.18452940701544   -1.17283366111159
H          -2.01746865464353    2.01424350474630   -1.43657349483551
H          -1.02367412404934    0.65183805897376   -1.65313259083866
