    26
        -50.45326767  Gyration_radius:  2.46145522786 Dipole_moment: 2.208
 S          -0.01232231116258    1.58766030935618    1.09618610319187
O          -0.71465748924125    0.88112707799331    0.05541603924661
O          -0.77890763588064    1.95822549142886    2.23455414367018
O           1.17327780623226    0.70566869075800    1.57087140235522
O           0.66555064584387    2.82601643789123    0.49066459236561
H           0.83631138213581    2.66095563611842   -0.49552355454685
H           1.37559367263694   -0.03497363096444    0.92009781849414
O           1.66162569463217   -1.28483250424857    0.02325333664992
H           2.32176939780231   -1.84849768777188    0.43051704541965
O           1.16416177855833    2.34743423110019   -1.96406613525306
H           2.06083973382390    2.59962493072402   -2.19361895929685
O          -1.58350494420884   -0.78498173111333   -1.78989732932181
H          -1.33538752202155   -0.12492617352396   -1.11107094143967
H          -2.38398329123509   -0.45865331811631   -2.20300557381260
O           1.05683436983682   -0.22492357847234   -2.45983710777408
H           0.12256544115393   -0.49075127857555   -2.46152500011735
H           1.07978383731631    1.37714170901301   -2.18405768599619
H           1.42707764018194   -0.63305733777144   -1.66209145519929
O          -0.62652911976447   -2.37190426621864    0.31892362410427
H           0.76783249240605   -1.77046286423744    0.12376080049886
H          -0.98524498449748   -1.87054014749613    1.09616585609699
H          -1.10690467080005   -2.04458442932179   -0.45587022349340
N          -1.47291594823847   -0.91375944619306    2.43736584509457
H          -2.46030800726385   -0.99896670399581    2.64870760838451
H          -1.28700154199653    0.06845200374073    2.25394848446134
H          -0.96555640631700   -1.15649143009663    3.28013124624027
