    26
        -50.45318488  Gyration_radius:  2.46047480678 Dipole_moment: 1.634
 S          -0.89433475131425   -0.29203213897806   -1.63108301668829
O          -1.01688883748651   -0.39490464483552   -0.19944965542172
O          -1.67094886244166    0.73948965879276   -2.23258066020151
O           0.60594608078003   -0.10666765101705   -1.98160466639220
O          -1.22040732109296   -1.64094523130321   -2.27894589987862
H          -0.63793570068780   -2.29621429283813   -1.77802385013915
H           1.14625184534497    0.22475203243035   -1.19600121057236
O           0.42089127199733   -3.10326206487242   -0.98221588959480
H           1.15499034062618   -3.33304652037578   -1.55584680472876
O           2.02979410052090    0.73541784540839   -0.03137444921441
H           2.67106795418019    1.38016955028298   -0.33460382037555
O          -0.50468098246634   -0.63063649883770    2.37130345213287
H          -1.22301400953247   -1.07147481531582    2.82688800419113
H          -0.77695578574913   -0.55461012027354    1.43412457093193
O           1.60451937748584   -1.82158335950520    0.99533619217759
H           0.94875328625955   -1.54271917720767    1.65510232628948
H           0.82273432958144   -2.63974910922987   -0.19750388132745
H           1.95914165379356   -0.99606323523941    0.63579981377121
O           0.44832937826574    1.90565199061156    1.58976422520748
H           0.10975403627305    1.15875292339943    2.10415274147339
H           1.42180608925905    1.22167043287987    0.63072776615739
H          -0.30603331230403    2.21176001551113    1.01937940466418
N          -1.56111618840053    2.66034309635200   -0.03810432023751
H          -2.45727312293221    2.64801523493832    0.43395699711359
H          -1.60953277684943    1.96853770638967   -0.78422199180592
H          -1.46485809302003    3.56934839301201   -0.47497537752397
