    26
        -50.45018958  Gyration_radius:  2.49708500592 Dipole_moment: 5.271
 S           2.34160755534945    0.10372903653489   -0.58017916699820
O           2.13457389112137    0.98609747016703    0.54629395026244
O           3.52604049588797    0.27756531946382   -1.33232051673084
O           2.24811043622263   -1.36299963499204   -0.11532849138427
O           1.07762115567709    0.22757752600636   -1.49081875876242
H           0.66435097296862    1.13393976007738   -1.27691652316761
H           1.45100271877179   -1.50317012779690    0.47955168114729
O          -1.62592857115443    1.50858571029493    1.09527797647155
H          -2.22838747755504    2.05024003469183    1.60638174214621
O           0.20544717593484   -1.82852849468845    1.38724450239367
H           0.16485468261304   -2.77449372273693    1.53647760245200
O           0.19768772912324    2.44428244280186   -0.65189244661092
H           0.95275972216588    2.47439835624534   -0.04715687391635
H          -0.57593585668070    2.19490453886030   -0.10015744022513
O           0.37632344236563    0.67565890311215    2.54875313433225
H          -0.90385927198822    1.21656405337319    1.72379276722387
H           0.30309652015807   -0.28806547628226    2.50694749592950
H           1.12561025040276    0.88635540907775    1.95998554284317
O          -1.96071050039121   -1.10707172527412    0.22282940544802
H          -1.82005058874079   -1.15053930351340   -0.75510247756231
H          -0.66192974678205   -1.57683726292999    0.92018122841488
H          -2.01604603984455   -0.16341465736172    0.44601934943683
N          -1.36293192209540   -1.13406973669718   -2.41258130169015
H          -0.42678813009701   -0.74820299095426   -2.32652832559135
H          -1.89707941718671   -0.51460155861376   -3.00897670884221
H          -1.28943919623969   -2.02790387889585   -2.88177733705613
