    26
        -50.45098308  Gyration_radius:  2.43002106878 Dipole_moment: 1.553
 S           1.02923783897227    0.12355537707003    1.39707373356233
O           2.30877242608556   -0.26945147067216    0.88001110049612
O           0.94978911948943    0.61017684231787    2.72729442400018
O           0.42729457086756    1.20071465461876    0.45844245321124
O           0.05325853847434   -1.07889689504852    1.27296575627899
H           0.18984165110834   -1.55546576279639    0.39818624004640
H           0.71607397191700    1.10904643079197   -0.49965759901883
O           0.19201370797703   -2.23268183595208   -1.02348397869167
H          -0.29105661668914   -3.06092157545105   -1.01369026553996
O           1.12991987537032    1.02247028277995   -2.00987432120657
H           1.66947897962365    1.77245234899878   -2.26580575689545
O          -2.48989449413743   -0.02936586906614    0.43607326777700
H          -2.27281167474155    0.74025714808683    1.01724439076676
H          -2.13505519708734   -0.78418991714513    0.91247194419352
O          -1.33505505095994   -0.39297751579208   -1.93983865374193
H          -1.84729363011822   -0.15650291020685   -1.12913460523194
H          -0.74389075775467    0.34487435607632   -2.12797113666321
H          -0.41267137975979   -1.55807669618888   -1.48232242172108
O           2.62563066951037   -1.05283418115146   -1.65137021864897
H           2.77096504737255   -0.83248504974555   -0.71082499410094
H           1.97173271590836   -1.76517757537288   -1.63910490254525
H           1.73973405521286    0.22134524165601   -2.00456923789779
N          -1.69577589380253    1.75017098364518    2.31244952758522
H          -0.80057539009312    1.34218551954451    2.57227268854881
H          -2.24679372973334    1.85350640557671    3.15619634780409
H          -1.50286935299395    2.67827168334914    1.95696619757548
