    26
        -50.45098296  Gyration_radius:  2.4301235983 Dipole_moment: 1.553
 S          -0.58884356314357   -1.10240151664175    1.21044581056231
O          -1.86188458552193   -1.49859522249004    0.67994756224915
O          -0.10579026271560   -1.74450171133367    2.37960486926634
O           0.48081142513625   -1.26545394202984    0.10017896263200
O          -0.62099416879261    0.42594656225551    1.48763123717785
H          -1.10541879312748    0.90856625458657    0.75052977376434
H           0.12058849959027   -1.13762674016112   -0.82905234801590
O          -0.37923643336006   -0.95185367723554   -2.30422459227553
H          -0.33380946770009   -1.77542491512667   -2.79285935999407
O          -1.66155224018778    1.76290910242722   -0.45010512424662
H          -1.82123687650848    2.67061332596943   -0.18555557300687
O           1.92198003890006    1.49685282680573    0.67879478551329
H           1.20906388203581    1.70043620435700    1.28949966533186
H           2.29626495214812    0.65046631702742    1.02614947486247
O          -2.81929089394879   -0.48536662172709   -1.59585199788402
H          -1.35700752610806   -0.75864675756031   -2.16201003197751
H          -2.71024012453165   -0.97805920364378   -0.75941081380121
H          -2.77386710618185    0.44622909317109   -1.34033068465893
O           0.60413739199897    1.63047062707494   -1.63574670916457
H          -0.80705537681434    1.77434929359743   -0.99861981391261
H           1.21587436085886    1.57851693879208   -0.86206657397500
H           0.60814472677699    0.76481115526466   -2.05998883976936
N           2.60945696726439   -0.78149184188766    1.96546309578824
H           3.02490319890180   -1.48920045617309    1.37260049102233
H           1.68651084199417   -1.12079362793401    2.22691062156301
H           3.16849111985411   -0.72075146502592    2.80806610467678
