    26
        -50.46300175  Gyration_radius:  2.47121045811 Dipole_moment: 4.016
 S           0.87355371768770   -0.97278221599206   -1.63863801423986
O           0.15971409906237   -0.74149940764646   -2.86372713998857
O           2.00814341790467   -1.85477956946992   -1.70003842188894
O           1.50467811866905    0.46177049400613   -1.21567480861507
O          -0.02765957626509   -1.28291255200399   -0.52565721816209
H           2.43658245561641   -1.55028835526519   -0.06350539681607
H           2.27951777509864    0.51916668614878   -1.76614745493081
O           2.67548918067916   -1.35200022469444    0.86235573832430
H           3.16769649446384   -2.11775737907014    1.16373556198678
O          -1.33764534930800    1.18218018041342   -1.69453908239804
H          -0.81905030824202    0.53958907344744   -2.21421542795595
O          -1.97256008751407    0.16863940141537    2.53708814385394
H          -2.27911939426465   -0.21510695923884    1.68959735398303
H          -2.39245255427272    1.02821109450594    2.60343072952076
O          -2.53925041429939   -0.77857763042901    0.03966512809462
H          -3.08565016357783   -1.54659371977558   -0.13369795632693
H          -1.62012428956018   -1.03607105851177   -0.20617229721054
H          -2.00427541725361    0.66670645695471   -1.22330491826318
O           0.10721636022713    2.53889699293514    0.08966345185899
H           0.46716012314632    1.25558132444944    1.02251346758737
H           0.89863232477482    2.75617767802799   -0.40632640971828
H          -0.48976427324012    2.11024385420957   -0.57359277585511
N           0.50585104020141    0.30594334831137    1.48456026884989
H          -0.27866905337506    0.22328346626411    2.16170062327124
H           1.42556332767112    0.08249566275437    1.86049369906176
H           0.33642244611760   -0.39051665166030    0.71043314599131
