    26
        -50.47163763  Gyration_radius:  2.37102807139 Dipole_moment: 7.017
 S           0.66826727155188   -0.26610539353044   -1.36001760075028
O           1.16424255041031    0.48102772005080   -0.19948059852426
O           1.24614596452143    0.37108293929922   -2.63114891350981
O           1.10077502411390   -1.65486197245205   -1.30230860178601
O          -0.79501533290158   -0.18000640636213   -1.41208274400267
O          -1.43424645393864    2.37746355832458   -0.92648857034516
H          -1.36171301797235    1.45026060803812   -1.22378371009050
H          -1.43979399909035    2.33400093349679    0.03918514582316
O           1.47827184521169   -0.41089013999906    2.32326867569519
H           1.71619498004195   -0.02629699747934    1.45853870465655
H           0.74211935092697    0.14364644282380    2.62350877487356
O          -2.02556114785528   -1.42519536854740    0.48063817225079
H          -2.86682455610552   -1.75878922559765    0.16539423272208
H          -1.60557192421822   -0.96377511507531   -0.29735666390034
O          -0.83137760590159    0.99165017270693    1.53575025172593
H          -0.14547052738767    0.87646663937575    0.84908631050022
H          -1.47368824197339    0.28883715663442    1.38424401249764
O           1.06888553265352    2.76328054389881   -1.73828378932373
H           1.20876205185513    1.35891486778710   -2.44061122203077
H           0.10456643385884    2.83565854135144   -1.53734418092319
H           1.47867582185879    2.49059928298997   -0.90934727197429
N           0.39885689873828   -2.44732613237451    1.04541033702611
H           0.85734993166415   -1.74017148402037    1.69806620895940
H           0.60259802576913   -3.40403171597564    1.31345945097996
H          -0.62397657408908   -2.26005751027728    1.00459425187601
H           0.76752770824867   -2.22538194504757    0.05710935757364
