    26
        -50.45098284  Gyration_radius:  2.43016892394 Dipole_moment: 1.558
 S          -0.74797456918403    0.46166171486822   -1.50255797811844
O           0.36452790215351    0.93934389767051   -2.27280022693817
O          -2.01605463923897    0.35171851461397   -2.12903076904112
O          -0.38316539963086   -0.92691189778459   -0.91748251444135
O          -0.91334189577415    1.37064281932205   -0.25359391111818
H          -0.01579426376162    1.60943285448045    0.13164099254494
H           0.59865506558753   -1.04506419160681   -0.73968720792266
O           2.11863979407832   -1.29310951514450   -0.44177451331329
H           2.48134386120996   -1.96629514672637   -1.01999075354782
O           1.32413004260499    1.86354644178602    0.91911871462723
H           1.21529760322279    2.55396034295736    1.57554888873802
O          -1.54626969031934   -0.33517208246879    1.97278023207619
H          -2.06746853737694   -0.85913999124474    1.31641606721980
H          -1.67694811925951    0.57517818389503    1.69569083922048
O           2.83290991080381    1.04901946006823   -1.26455734337610
H           2.62448495174498    1.59820290699619   -0.49636484086011
H           2.52485990508236   -0.41893028814758   -0.73234003810120
H           2.05061748091519    1.12561341635701   -1.84457190306386
O           1.11753916835393   -0.41483555204739    2.06921311300143
H           1.33414571874011    0.98624305600355    1.43045119746649
H           0.13574651292168   -0.51625783255193    2.10498577278729
H           1.44528777650359   -1.04700565780119    1.41936042540563
N          -3.07688579708101   -1.34541748090005   -0.01607427442589
H          -4.08508592975985   -1.31999031675061    0.07904589854957
H          -2.82048033839897   -2.27962506592045   -0.31012406139860
H          -2.81871651415488   -0.71680857989145   -0.77330182596815
