    26
        -50.45098314  Gyration_radius:  2.42997161072 Dipole_moment: 1.552
 S           1.26870748438088    1.18984994269967    0.01460609745439
O           2.30156461880752    0.53719772680820    0.76714521645467
O           1.55309016211200    2.43809287685401   -0.59656282645523
O           0.77447330613664    0.21981167318563   -1.08915769031990
O           0.03145730757391    1.38292140007348    0.93433993534099
H          -0.11126844176059    0.57031758389584    1.50904792453423
H           0.85219783252900   -0.75023505599760   -0.83870780121186
O          -0.53113551643821   -0.72943808603676    2.29291226097471
H          -1.18532311801602   -0.53234316549847    2.96568668786009
O           0.94814247602553   -2.28062302494607   -0.51003951550112
H           1.59203442742553   -2.71695703652150   -1.07047569740495
O          -2.30238736056462    0.81917273450645   -0.64729689489438
H          -1.80744818108917    1.24974481005025   -1.38669359837389
H          -2.05172099529852    1.33137723990448    0.12573917095339
O          -1.72413623200458   -1.63651476310865    0.21675360070465
H          -2.00793653582169   -0.79548012061560   -0.21643021111954
H          -1.02092149304014   -2.01230033088627   -0.32512200587954
H          -1.03399722064617   -1.17528025033801    1.53159835575703
O           1.95269452609714   -1.88289697274113    1.83629154611917
H           1.16337646758803   -1.67273468889844    2.35395837039559
H           1.34237575576511   -2.26224039408697    0.41616934127413
H           2.31669442784532   -1.01502684466045    1.57440067011921
N          -0.77952230688859    2.29009501063884   -2.33147740566480
H          -0.44210542322249    1.78559105675852   -3.14178250899430
H           0.02616449927292    2.46074109259816   -1.73389200536332
H          -1.12507048674180    3.18715757635212   -2.65101099673772
