    26
        -50.45098320  Gyration_radius:  2.42991449041 Dipole_moment: 1.550
 S          -0.99841931785090   -0.66886347508911    1.25682219102850
O          -1.57657052579379   -1.81747796921435    0.62005483106782
O          -1.23023448200004   -0.46584263233556    2.64155243520403
O           0.53484885108573   -0.69773687733647    1.02877302228392
O          -1.47155757032438    0.60586997232341    0.50495589999120
H          -1.47474947910246    0.44903450950374   -0.48819352625644
H           0.80686838329320   -1.14539639730156    0.17113418451952
O           1.29722341982349   -1.83198404232527   -1.15036468091753
H           1.77982906401532   -2.63913974560092   -0.96407443875091
O          -1.31403243318291    0.36213242421633   -2.05245187698439
H          -1.76214694877564    1.08949901359629   -2.48786453581778
O           0.78406129592291    2.38005871811694    0.33492400409513
H          -0.17581965892172    2.41725166734507    0.34049519926395
H           1.01289268214099    2.04891886607177    1.23771617160341
O          -1.09554522654271   -2.40308089099157   -1.93889051506165
H          -1.38496112603315   -1.55894892111469   -2.31158271628769
H           0.42450197960188   -2.11172273007447   -1.56711379361035
H          -1.43744120190171   -2.40120056092342   -1.02381617368533
O           1.17783781060238    0.91939411019030   -1.86098707540065
H           1.59817441414572    0.08508632594630   -1.62327146196157
H          -0.32272052696106    0.57967232686594   -2.08675828573603
H           1.17899949577161    1.48724272850407   -1.05282709428011
N           0.93631082263495    1.46387463852449    2.87586918673006
H           1.74746358283186    0.88899410991807    3.06680584876162
H           0.12803673515223    0.84583665312929    2.88653818320313
H           0.83714998035891    2.11852818810045    3.64255499702587
