    26
        -50.47064874  Gyration_radius:  2.41873833919 Dipole_moment: 5.116
 S           1.82682975978070   -0.22834775297288    0.79840317953590
O           2.08580838842539    0.33654439014050   -0.50961804180984
O           1.25210352821971    0.69746710577006    1.74613731421780
O           1.04248732290076   -1.46475800288257    0.70754906451338
O           3.24419132410631   -0.64967773466396    1.36521275912053
H           3.73682994803501   -0.78302229727589    0.56302681530143
H           0.02675233529466   -1.89293123202703   -0.46391298602782
O          -0.68565471728227   -2.12376639166320   -1.11509974533130
H          -0.68243192736178   -3.07952628917582   -1.18265901097714
O           0.70814805407490    2.73620735540648    0.14518053242081
H           0.89209626539251    2.09147045805660    0.85544387201592
O          -1.44388946992673    1.79325643773997   -1.09330759050427
H          -0.76895950737804    2.29128239031772   -0.57386324276123
H          -0.90918942268054    1.32201812004343   -1.77593816904783
O           0.21122418240683    0.20996868862974   -2.43609121918237
H           1.37006421220188    2.54241328406870   -0.52532676362604
H           0.97114363623182    0.29262516572850   -1.82756863852736
H          -0.12499539070697   -0.68430812798577   -2.29934099424966
O          -0.88792149008306   -0.75160372194854    2.36194708657490
H          -1.82825657186924   -0.39214394798719    1.11205687781793
H          -0.19284460097323   -1.23818749696962    1.87205649010240
H          -0.41223109938267    0.04171709715838    2.64327387490415
N          -2.27847441984975   -0.29574741083974    0.15571986041127
H          -1.97158280283491    0.64763369691107   -0.31616878315222
H          -3.28845238147086   -0.35627383946246    0.21872338057831
H          -1.89279513533790   -1.06230994414555   -0.42583592229319
