    26
        -50.46655964  Gyration_radius:  2.45870455386 Dipole_moment: 4.215
 S           1.89878141488774    0.10602076437021    0.96045841413221
O           2.24352900626887    0.87238524262337   -0.22060862517708
O           0.54366695789705    0.35838085013849    1.42649254261911
O           2.18433979823080   -1.30861495744477    0.81503411659383
O           2.83938555695558    0.63486891676342    2.12280309248867
H           3.70575290369459    0.43914411652138    1.78219527885151
H           1.13685914682293   -2.17258706866972   -0.00948088357107
O           0.42786266860807   -2.61797169574672   -0.54681224273064
H           0.76382297210521   -3.49080515399992   -0.75624321680675
O           0.23083323439781    2.67046729939407    0.18363570331886
H           0.23317936749125    1.91630148597211    0.80501839217190
O          -1.33094786356861    1.50450860674920   -1.59136224075315
H          -0.66016964903144    0.84439538391353   -1.90449012363215
H          -0.81188369558621    2.10034895036551   -0.99072981187324
O           0.58306799803151   -0.24535464314138   -2.00288299634378
H           1.09480296727154    2.59415700200473   -0.24000643915346
H           1.28143021536665    0.16172256355737   -1.45480598011592
H           0.45593241784588   -1.14063448000691   -1.65507425217199
O          -1.30128788025089   -1.48965284496071    1.20758278750049
H          -0.60008475587611   -0.84982548523151    1.46765577865937
H          -2.23464931975554   -0.52311702275917    0.49392904868821
H          -0.85410824254934   -2.07777933273807    0.57209504997840
N          -2.84142501854330    0.23279028740906    0.01128380352174
H          -3.62423493920309   -0.19526175478279   -0.47119289159840
H          -2.18767894562866    0.79433999492975   -0.72034633817783
H          -3.17677631589672    0.88177297476748    0.71585201356214
