    26
        -50.46655948  Gyration_radius:  2.45866674816 Dipole_moment: 4.207
 S          -1.32378845316344    1.66615262660665   -0.09642804499226
O          -2.19841895331223    0.77324101810484    0.63772195769722
O           0.07281046728745    1.54056295951478    0.29219747526888
O          -1.51288324963932    1.58238571930609   -1.53207602089749
O          -1.73817305083602    3.13802713539761    0.32456159935335
H          -2.64714961451017    3.17490376217458    0.04638625888648
H          -0.83375709339483    0.35542780178309   -2.27860602052047
O          -0.37304531775503    0.39206347595855    2.63113710803400
H          -0.04848704853239    0.92065057762353    1.87604083136197
O          -0.37685318948705   -0.44856991728281   -2.64540231350790
H          -0.68471223756731   -0.53861929969720   -3.54855796525974
O           0.40081958914185   -1.92599551896554    1.64279233174106
H          -0.27664259288776   -1.96429323070683    0.91940092824551
H           0.12876393317682   -1.13580424787478    2.17835008337891
O          -1.34308605670710   -1.59046859975254   -0.29154864192186
H          -1.78132328974937   -0.78216114091056    0.03775286553065
H          -1.00184748584761   -1.37206730893866   -1.17151153405986
H          -1.32443372503697    0.36190203008010    2.47090947228320
O           1.81558523266211    0.48464117349791   -1.35611075048312
H           1.23285382084577    1.04386207127598   -0.79374721576009
H           2.27320680750617   -0.50303912147346   -0.29303079740667
H           1.19896596779079    0.06340581314732   -1.98233081050816
N           2.55138594804643   -1.15512913394519    0.52541059025161
H           1.60385283798894   -1.52346769097259    1.01946918596828
H           3.08631053164088   -0.62016776351873    1.20200220099776
H           3.10004625235182   -1.93744319044768    0.18521719632494
