    26
        -50.46655999  Gyration_radius:  2.45856295884 Dipole_moment: 4.213
 S           2.10736139133612    0.02828581028179   -0.30616764392535
O           2.02071065374722    1.22005320901351    0.51443533449817
O           1.18744777574715   -1.01837607287866    0.11268754800621
O           2.01660141164182    0.31570913151882   -1.72499877962607
O           3.55452114757367   -0.57339133728120   -0.06375460730199
H           4.11558679273732    0.13411440269088   -0.36307234159098
H           0.56498660466991    0.57909859063140   -2.31504603332449
O          -0.38126562542613    0.73480739705624   -2.57972138148680
H          -0.35199261532949    1.09089752401304   -3.46904726736838
O           0.79828005034135   -0.10572088158245    2.56323269784587
H           0.93616797459172   -0.64044590980805    1.75705633589108
O          -1.58962752800492    0.76311548181045    1.86094925978207
H          -1.27482622728203    1.36480127000268    1.13811644328982
H          -0.75103222533515    0.46137462087182    2.29779646856181
O          -0.87338800089807   -1.64447171018488   -1.38005215156225
H          -1.82089801079509   -1.46561017561275   -0.20317619019810
H          -0.88563242360650   -0.86206823726115   -1.96091968553547
H          -0.02160653791336   -1.56188201698570   -0.89392499223495
O          -0.44658974873339    2.05046606574353   -0.12191755747993
H          -0.57291871318920    1.70175574506259   -1.01682633634802
H           1.34389054856986    0.67219618306943    2.39327533424673
H           0.48788253336627    1.88059165368428    0.10564373187777
N          -2.42030746830911   -1.33593416217747    0.68932127775402
H          -2.07654063347431   -0.39388398960393    1.21041771082801
H          -2.26318250614294   -2.12668609443639    1.30584745361177
H          -3.40362859988201   -1.26879650764973    0.44984536180232
