    26
        -50.46348025  Gyration_radius:  2.34733153937 Dipole_moment: 6.779
 S          -0.01797534187571    1.34391001640166    1.15911927023436
O           0.05083388516591    2.76662671381277    0.92737761456065
O           0.23653662071918    0.88096362722098    2.49672259494128
O          -1.51588645549725    0.88681103991390    0.86384774048316
O           0.79812442494338    0.60886110468434    0.17348060015908
H           1.70625290335438   -0.44689937119017    1.11827584734285
H          -1.67747205387199    1.01519607159236   -0.08657983814083
O           2.12687109130320   -1.21561856359134    1.56455917919030
H           2.37956594639721   -0.88551017186087    2.42884052645344
O           0.14540937246059    2.60610614915893   -1.66035490055029
H           0.10268906283620    2.80134422817242   -0.68767726061999
O          -1.72887002646363    0.83081484106208   -1.81012027065403
H          -2.48107531128831    1.26515011354210   -2.21564925625062
H          -0.96946475852308    1.48617936478727   -1.86536758913817
O           1.59862464429530   -1.43113061598066   -1.32127506980007
H           1.45545059717481   -0.53443892793503   -0.95994727935338
H           1.01415859854380    2.21783151879833   -1.78755317468156
H           2.15492098150142   -1.86159352165144   -0.66326440956233
O          -0.53204077198652   -1.59073923135780    1.84985140270674
H           0.42041346013282   -1.81226472204587    1.85231305165696
H          -0.53603021147716   -0.66787695717496    2.17684732509006
H          -0.90346266001919   -1.58966051459175    0.35504185330931
N          -0.96973959426648   -1.66792027350257   -0.72537113626479
H          -1.36272053787058   -0.79782752235261   -1.11381631238191
H          -1.52598477676509   -2.47111798922126   -0.99871139863980
H           0.03087091109465   -1.73719639672623   -1.07058911999543
