    26
        -50.45315589  Gyration_radius:  2.46424615565 Dipole_moment: 6.333
 S           0.26418344272482   -1.74214172463810    1.01616545334936
O          -0.88717585506808   -1.76904486174082    0.09527898892277
O           1.35267341457402   -2.57463696000184    0.60878009606655
O           0.78546097107516   -0.22519371331452    0.93227282326265
O          -0.19171499400992   -1.86362231093668    2.39444667985396
H          -1.50019150013367   -1.06303192994500    2.38829239574498
H           1.39012522148930   -0.23673354805545    0.13456813245866
O           2.17277125203260   -0.69816549070782   -1.18272915072343
H           2.28606686294829   -1.57453547506608   -0.78429030199680
O          -0.66468539030401    1.73441893269628   -1.54574808050969
H           0.27781996494822    1.98249358281575   -1.51273400378182
O           2.06839764293393    2.07361663882890   -1.39972056692955
H           2.31607378452284    1.14090111460417   -1.30440054670325
H           2.45672448476017    2.37158857351289   -2.22420496115689
O          -0.96197841361996    1.75308814148051    1.33247665488589
H          -0.57449209091305    2.51858715209330    1.76034016387445
H          -0.98920237923869    1.82556995103739   -0.64238522930647
H          -0.23177449652280    1.10922557802981    1.20132648514261
O          -0.15361959355443   -0.83218760528012   -2.32529372898166
H          -0.53504486302981   -1.32018681214985   -1.57387595183867
H          -0.46538642362571    0.08878478791214   -2.21694251064211
H           1.37625145116933   -0.78859652059487   -1.78603142326559
N          -2.27824974435657   -0.56671817264569    1.82740906828589
H          -2.01023433306332   -1.01301798735539    0.89337665284514
H          -2.08152225295877    0.44680460422258    1.77930698395296
H          -3.22127617281493   -0.77726595482574    2.13431589717894
