    26
        -50.45315592  Gyration_radius:  2.46448876465 Dipole_moment: 6.325
 S           1.15275738355686   -0.09034590986351    1.67445388330458
O          -0.07369019400575   -0.90433310868474    1.76238654063096
O           2.35536702557613   -0.85929720111992    1.59592167234785
O           1.00230692716237    0.67750208586183    0.27177783667471
O           1.11079531756238    0.98845888273232    2.65261248808388
H          -0.36970206060224    1.38829163016503    2.64934607071884
H           1.36244526400195    0.01666370896199   -0.38858732886514
O           1.93744477585513   -1.31929591110280   -1.05369182577042
H           2.47496798858766   -1.46086729346275   -0.25961672339336
O          -1.62877026503161   -0.36661790983432   -1.74693184628783
H          -0.87966461274464   -0.18293703264153   -2.34368448005462
O           0.70429081255227   -0.00000195248958   -3.17080596917230
H           1.31372778041121   -0.41931616446512   -2.54386625115713
H           0.74214606954381   -0.52363415412749   -3.97310654400507
O          -1.23725406891340    2.04976654670909   -0.20467334390897
H          -0.36458788382089    1.60598954722295   -0.12345445492557
H          -1.09351026341490    2.83474803080264   -0.73598428025298
H          -1.74483041997612    0.43353721365553   -1.22159578664640
O          -0.34391226919147   -2.40467307875147   -0.46180622138456
H          -0.31922863000273   -2.04946938709328    0.44462813369000
H          -0.95871132397469   -1.82005649575383   -0.94901775593035
H           1.12473144359720   -1.89299399319611   -0.92244641091371
N          -1.38647036542671    1.17038028685599    2.35729365863394
H          -2.07347486499183    1.29166605545296    3.09290733524788
H          -1.18788281934107    0.15048097240468    2.10543722653623
H          -1.61929076692964    1.68635461177028    1.49250438680341
