    26
        -50.45315585  Gyration_radius:  2.46436583174 Dipole_moment: 6.329
 S           0.27975418056684   -1.15062412002440    1.65419646856502
O          -0.77332996939018   -1.66094463282716    0.75700847061698
O           1.45551233503181   -1.96303758574748    1.69035587256883
O           0.70437813275325    0.24806672270958    0.98856473053616
O          -0.29749035483773   -0.75181200318060    2.93089708602126
H          -1.64959340824806   -0.15653969606791    2.51803322612598
H           1.38349415085554   -0.02264490069845    0.30445051482306
O           2.31938488810945   -0.89245059977147   -0.65760752330256
H           2.45292079174539   -1.51881941788911    0.06999313572113
O          -0.62702463524365    0.88975699641631   -2.15847519952381
H           0.28923917310329    1.22317454419797   -2.17291316327532
O           2.05060424896887    1.53092232173753   -1.99857721099527
H           2.49624800755468    1.50856598345014   -2.84729411979786
H           2.35006484250540    0.74622448811648   -1.51399779998601
O          -1.20079196790811    2.03431604422326    0.43616107112737
H          -0.42015561248206    1.46851419655431    0.62466751943523
H          -0.90836686056735    2.94179877820978    0.53734987596651
H          -1.04227693612543    1.30393560016361   -1.39317780182601
O           0.12844188929655   -1.70762556252335   -1.78385209007665
H          -0.29070710572531   -1.88727096642941   -0.92332457281257
H          -0.25353050722260   -0.85784233336664   -2.08210151573618
H           1.59233950951912   -1.29746020511563   -1.21817048375509
N          -2.40136304995320   -0.00838568915300    1.75697685580036
H          -2.01613527282848   -0.76392737727994    1.10581311258796
H          -2.26801367806254    0.91393725813777    1.30984009478999
H          -3.35360278153928   -0.16982784372412    2.06518342648635
