    26
        -50.46656057  Gyration_radius:  2.45819856941 Dipole_moment: 4.208
 S           1.75352641241449   -1.06453098632661   -0.56533431895891
O           1.45743488092009   -1.81336563923075    0.63987720401013
O           0.55938533756761   -0.67456805881855   -1.29964079536364
O           2.65161337793412    0.04947140195982   -0.32781477060904
O           2.52367276702194   -2.06035584335866   -1.53000539837517
H           3.30279897390303   -2.26358048031887   -1.02349303500572
H           2.01764824329288    1.36269213545089    0.30353602142441
O          -1.05388514956026   -2.46212495715246   -0.20756948664668
H          -0.57288459154811   -1.84752590848921   -0.79564831224317
O           1.52476322424738    2.12864165623247    0.70350318683210
H           2.19346871807235    2.74900225536958    0.99765271376436
O          -2.16590173131244   -0.56824733869575    1.25074957807218
H          -1.89438259088210   -1.38184276332421    0.75134254670046
H          -1.33380150973129   -0.28657474921249    1.71107185449952
O          -0.16572238661599    1.84237022808373   -1.39457479260958
H           0.17594147014356    0.92941114601686   -1.52973999930705
H          -1.56627380427243    1.48584822319319   -0.91702945836623
H           0.37831238276000    2.18777875086582   -0.66349925016335
O           0.23617739229222    0.08116199494057    2.08935905431669
H           0.62506642489902    0.90168406494700    1.75171147844749
H          -0.35650790709928   -2.77518008433290    0.38184094266091
H           0.74156377063628   -0.64695057492226    1.67904545843086
N          -2.54047501466461    1.14039273558422   -0.59529582555254
H          -3.10724737694761    1.91958949328961   -0.27866946125797
H          -2.39101605603427    0.39555398678877    0.24167421060749
H          -2.99327526743376    0.67124933147498   -1.37304937528472
