    26
        -50.46060887  Gyration_radius:  2.58581312796 Dipole_moment: 5.755
 S           0.05908527761202   -0.63309291143547    0.29769022314594
O           0.38088752289928    0.32070907182625    1.48399915337540
O           1.18744006890897   -1.51143751509748    0.08146975260662
O          -1.15688514757335   -1.36542724246400    0.70443769433307
O          -0.25639700677542    0.19924259199813   -0.85761718181504
O           2.22904827157735   -0.07103157293289   -1.89598834482254
H           1.38042673256029    0.39057240869909   -1.92306989835125
H           2.03664367237084   -0.81360104495348   -1.29530709488450
O           3.86080810180551    1.22662902597378   -0.22905481629350
H           4.76475162395313    1.09348569037513   -0.51814184039446
H           3.28714264584857    0.83343574450888   -0.92911537113204
O          -2.34795174683140    0.79658322748323    1.79279165549264
H          -1.93316113637714   -0.05398366453229    1.55537820002332
H          -1.66243115214071    1.27591682975907    2.26456275850409
O           2.83859309031396   -0.24158582659052    1.76622771449547
H           2.61934099880542   -1.02113174265265    1.23262887550717
H           3.29656712621126    0.37964714889541    1.15388694943113
H           1.35889633246091    0.18838475435503    1.70988902332290
O          -2.56051987458286    1.44519295791606   -0.78744052964381
H          -2.64546581697125    1.48443427218038    0.19077879285302
H          -1.61134337368490    1.22134659355305   -0.92606588048899
H          -3.00277658771927    0.04906987905950   -1.01308426916816
N          -3.05754561224094   -1.05581316622391   -0.99676197517984
H          -3.95107938710222   -1.38925155174325   -0.64961770266419
H          -2.26324298868457   -1.30484586701210   -0.30117606051748
H          -2.85083163464205   -1.44344810094678   -1.91129982773717
