    26
        -50.45315594  Gyration_radius:  2.46439964933 Dipole_moment: 6.330
 S           1.91658994675522    0.13233816304616    0.66871180931293
O           1.67743505274440   -1.03397345173708   -0.20123927413531
O           2.74468251753924    1.13676805214275    0.07771069988437
O           0.45831934495189    0.78140226354733    0.84767873023735
O           2.25511797889185   -0.30649340910278    2.01598771666941
H           1.36388366872432   -1.54056376635242    2.20204939522841
H           0.37005129127412    1.36677265240370    0.04024600869983
O          -2.04010032718808   -0.54204271082249   -1.17353916022687
H          -2.20066887993213    0.41886684454924   -1.13060564583306
O           0.63995737086387    2.08032870508485   -1.36568823400909
H           1.58159334937205    2.12516149697232   -1.13989559371036
O          -2.12355575340891    2.21256855367878   -1.07140065738945
H          -2.53437107429160    2.60550843150473   -1.84351205325981
H          -1.17225864951379    2.38089008656503   -1.15500478149677
O          -1.54583474059887   -0.77951086151703    1.66780233451697
H          -2.18214543377061   -0.31948103544400    2.21793357211008
H          -1.98788004523332   -0.83806023791103   -0.25740355344399
H          -0.88055140018635   -0.11040065463022    1.39434239230796
O           0.36827785590628   -0.27007512237150   -2.43164474158492
H           0.55109693408145    1.26736094470604   -1.94705156990792
H           0.95550720694005   -0.67737324867891   -1.77010857468615
H          -0.53831908879278   -0.49910279286184   -2.14406651231406
N           0.70951158506162   -2.28318520818921    1.76980437294302
H           0.99379249682672   -2.07318580271235    0.76083329326706
H          -0.27551597769911   -1.99957587729898    1.90258438589737
H           0.89538476066346   -3.23494202468231    2.06547566091201
