    26
        -50.47771713  Gyration_radius:  2.36999545316 Dipole_moment: 4.705
 S           0.52643629194225    0.36279229348010   -1.32560204911959
O           0.49422604426422    0.17733406049831   -2.86650571987064
O          -0.76964776850132    0.90442824979682   -0.91056227689743
O           0.73341605579226   -0.96602472071016   -0.73419507460683
O           1.61782834006038    1.25079145964150   -0.99389627118097
O          -1.29089634524889   -2.56161274328598   -0.43078478379193
H          -1.00921673370248   -3.47715736576937   -0.44858780636368
H          -0.47325825534135   -2.01686127268665   -0.54642051759150
O           2.51971932425607   -0.39534605590950    1.08738780064026
H           2.94247762583007    0.33139517783029    0.61694518624975
H           1.92809478906909   -0.78632349396962    0.40487776243684
O          -1.60839069384910   -0.34136927749049    1.26280996848931
H          -1.41215523437547    0.17302313513013    0.44819556988036
H          -1.66760801539553   -1.25735441492257    0.95561661925950
O           0.42151359913152    2.78991506742058    0.76229427238154
H          -0.45533580024980    2.75436404560679    0.36544102586617
H           0.99395107021910    2.36830077719134    0.08049780101781
O          -1.89165591736400   -0.87792093344817   -2.57582741521565
H          -0.35510681631824   -0.30000833575149   -3.01287285550444
H          -1.88275674995333   -1.64326257413522   -1.97726674518323
H          -1.93580624716806   -0.10510715591636   -1.99264093764715
N           0.51714108036986    0.72044986370917    2.40339695172877
H           0.47385137476347    1.65294539909543    1.89362811383823
H           1.37491916656439    0.22074573409920    2.02514271937406
H           0.55504511851502    0.83779743833695    3.40964381139042
H          -0.34678530331322    0.18406564215868    2.09928486042145
