    26
        -50.46788061  Gyration_radius:  2.39893944849 Dipole_moment: 5.651
 S          -0.93083068080745   -1.25482881810519   -0.90564354777325
O          -1.15794946862181   -0.50104066930062    0.32249439801014
O          -2.13444073754790   -1.42441841895136   -1.67381834504678
O           0.14096357393169   -0.59631296052760   -1.68916037288264
O          -0.38182692804846   -2.65792426835467   -0.50197483168967
H           0.36323925400702   -2.49801131029364    0.12544857393798
H          -0.21657594086276    0.86419639014698   -1.51423541237366
O           1.54015468848097   -2.16425719453855    1.27923994806634
H           1.61613912843048   -2.92735613304856    1.85446011410111
O           1.25520661744858    1.97714160904938    0.84550441189469
H           1.91225531853895    2.66400370092758    0.96529277153402
O          -3.08169397276278    0.94299098626980   -0.95657001082945
H          -3.23100848244657    0.74666514110873   -0.02706647418481
H          -2.87828604557207    0.06282583538920   -1.35119393408148
O           2.35945856601958   -0.06010835919621   -0.35973906695952
H           1.73018666267701    1.21045677972467    0.41046205379855
H           2.44423163416896   -0.82480713489199    0.22387842646442
H           1.62792781067821   -0.30156869527721   -0.96972426574266
O           0.31246671652352   -0.18698531293451    2.45430931716941
H           0.70679975478822    0.66514346167162    2.22582949177511
H          -0.38820372713407   -0.30516710269414    1.77508344167001
H           1.11817998586870   -1.43772273228978    1.82497542492442
N          -0.58729622831621    1.81594397145421   -1.17704389585744
H          -0.06562559084236    2.02805244980581   -0.30233071240670
H          -1.61803769718627    1.62297395970179   -1.00285041849203
H          -0.45543423144099    2.54011482519050   -1.87562709501167
