    26
        -50.45315590  Gyration_radius:  2.46424478967 Dipole_moment: 6.334
 S           1.08566216406928   -1.68170300039247    0.35964702373610
O           1.87652087065893   -0.44115456771878    0.45894510623647
O           0.87437808179324   -2.33728448131055    1.61241958214970
O          -0.35294652561062   -1.17849898812778   -0.14739822107479
O           1.56507793534114   -2.49602928932726   -0.74908534470933
H           1.93404668146777   -1.44544592231405   -1.80346688231695
H          -0.81574437956310   -0.92070594678424    0.70207264936452
O          -1.11615566772439   -0.59155083827811    2.23879372126592
H          -0.56196170144915   -1.34676940097181    2.48816588488643
O          -0.82300851352852    2.26419803587550   -0.18102515838867
H          -1.66535909308606    1.87243759399755    0.11568732236231
O          -2.99679848979916    0.91631137514564    0.84969929200178
H          -2.51431668451236    0.28343810874371    1.40382953142625
H          -3.52182780494634    1.45107447220146    1.44776101866758
O           0.57387733183051    1.36146241018807    1.98466434280242
H           0.15525324878393    1.87464966528868    1.26462592569903
H          -0.51694532312764    0.20873939297225    2.32285415664428
H           1.22565510660719    0.78828658399553    1.54310478531428
O          -0.47691787123921    0.35610508098772   -2.32845590404875
H          -0.55150254521288   -0.22565733397397   -1.54046159646838
H          -1.26700675830056    0.20747380301699   -2.85079035445294
H          -0.61018646284855    1.82407484293052   -1.01208711315504
N           2.11108260008292   -0.41039821703406   -2.05622320945284
H           2.18622328263263   -0.08442547196551   -1.04077835921542
H           1.25806119373229   -0.00216328994031   -2.47327071224251
H           2.94483933389326   -0.24646460726605   -2.60922748700976
