    26
        -50.45315583  Gyration_radius:  2.46449651908 Dipole_moment: 6.327
 S          -0.99711003077264   -0.90084482272866    1.52866517078534
O          -0.67229525021311   -1.81620390050522    0.41886568862096
O          -0.25910236324381   -1.15624946041026    2.72602568835666
O          -0.52225313438870    0.53600842631024    0.99031240848557
O          -2.44098951707547   -0.75210146259754    1.65094607951293
H          -2.90754615333671   -0.77385885434212    0.18829163289067
H           0.45135089901550    0.55493402929615    1.22259205765759
O           1.91431150592486    0.12720325379358    1.70882579008397
H           1.50637678567060   -0.37464172469638    2.43084996249675
O           1.29427330397627    0.51251953038710   -1.97486912417261
H           1.70256215867191    1.19245144952112   -1.40738139359552
O           2.38924352018666    2.19835197721447   -0.08691281854907
H           2.30043114694973    1.61605798570466    0.68337341446924
H           3.32957039387701    2.34136972469882   -0.20819490665155
O          -1.40584004417577    1.37058473658308   -1.38646768769036
H           0.35690523131255    0.73508986946155   -2.01375354094521
H          -1.04757724617474    1.17988381620644   -0.49187762299376
H          -1.53601173074999    2.31948547087557   -1.42947218173570
O           1.91675018351427   -1.53757617433939   -0.28186854882063
H           2.09943681195759   -0.55141357497226    0.99333018775061
H           1.02361883001383   -1.85747788307120   -0.06198123472130
H           1.79106669508201   -0.92536188788100   -1.03456671982767
N          -2.68200607610813   -0.96241632004770   -0.85046024067740
H          -1.78196265484664   -1.50348178293031   -0.64722654356794
H          -2.43674496623816   -0.07532614536770   -1.32081222830963
H          -3.38645827876484   -1.49698627616053   -1.34623330885542
