    26
        -50.45315592  Gyration_radius:  2.46439242684 Dipole_moment: 6.329
 S          -1.06876003270192   -1.14976720135844    1.29314790446414
O          -1.90163650937612   -0.48569659913251    0.27352698427043
O          -0.97573072716542   -2.56737080809915    1.13346846838281
O           0.40110721176525   -0.55746705693249    1.03146953106886
O          -1.40109976401619   -0.64631776670973    2.61920727800732
H          -1.68462833648991    0.83758626646824    2.35506544209202
H           0.76152542529136   -1.15324535954943    0.31207672319656
O           0.88439140874361   -2.26691815111280   -0.82974306207309
H           0.32881324797102   -2.85168041884354   -0.29215448331835
O           0.77122570365368    1.34508797806673   -1.85393801872927
H           1.58752373726603    0.81942642827216   -1.76251998238347
O           2.85875321858220   -0.41838775085386   -1.48300970874750
H           2.33844385634941   -1.19292359774716   -1.21893035934513
H           3.29970494300698   -0.65738279361298   -2.30024599305918
O           0.71540540430919    2.09181154738963    0.94141240024220
H           0.66313899984324    1.80554164072283   -1.01374236626865
H           0.72085421532111    1.11045208477091    0.98620643722487
H           1.56083384682826    2.38336555721400    1.28697571436540
O          -0.82432220440044   -0.84810147779079   -2.17208389239787
H          -0.34570497690482    0.00241872217086   -2.23963645229613
H           0.25657101420058   -1.84832593965588   -1.49096541095657
H          -1.40748645963316   -0.75137383558276   -1.39819666919350
N          -1.86322840696727    1.63380313671805    1.64757172694630
H          -2.05742602043774    0.97807187212711    0.82573464624192
H          -0.98193525063718    2.14206371454256    1.46480926954589
H          -2.63633353425691    2.24532981860057    1.88449386255378
