    26
        -50.45039947  Gyration_radius:  2.51261933387 Dipole_moment: 7.268
 S          -1.42751634250331    1.29675919993215    1.28647348415997
O          -0.31325764464941    0.99065966472214    2.21738543638994
O          -1.62201148565405    2.68865565189448    1.05537845638808
O          -0.94554808538536    0.63921185154268   -0.09401404251470
O          -2.59746627942231    0.49087411705662    1.60859592041825
H          -1.91525751377934   -0.88896932714084    1.78338927061195
H          -0.22278700590248    1.20696736858529   -0.45525160139943
O           0.84732613046760   -2.04077648229353    0.21347086319028
H           1.54845727809300   -2.68908952456801    0.29113044170419
O           1.03354290380624    2.02613765611126   -1.15710146141570
H           0.68278248344937    2.91136729813157   -1.27181803225158
O          -0.59369756101512   -1.25256960603282   -2.04310122542877
H          -1.11155145778065   -0.62223189247985   -1.52364437690824
H          -0.02828560409634   -1.68600866427570   -1.38449976981641
O           0.84635714743515    0.57807316353658   -3.35584924615949
H           1.01591296191785    1.58312324071249   -2.04290696098304
H           1.59776157908070    0.13671563319583   -3.75394264341113
H           0.26749893548638   -0.13228263059979   -2.98693403318914
O           1.86432917732910    0.26984028226119    0.88082509971080
H           1.90608316997675    0.90354776269482    0.15319932900450
H           1.16838669373876    0.62481665059117    1.47619026635604
H           1.26770013571875   -1.15320417068046    0.41547566576807
N          -1.03694439176969   -1.42214184200820    2.10339187994444
H          -0.51297004187819   -0.53395707805836    2.40258073895305
H          -0.50388264551188   -1.85073079349692    1.32297857737872
H          -1.21496252716542   -2.07478752933335    2.85859797347951
