    26
        -50.46788066  Gyration_radius:  2.39852558941 Dipole_moment: 5.648
 S           1.32768352376645   -0.17216713610570   -1.21085391656972
O           1.06090000536864   -0.73683895281657    0.10751978693268
O           1.91059069730210   -1.13180048688691   -2.10907024204241
O           0.07696322018291    0.40905766285838   -1.75303220321892
O           2.31955772925478    1.01662469157228   -1.02135360280724
H           1.94808280012793    1.58093297095229   -0.30176064062440
H          -0.93808040084273   -0.63877222092198   -1.34676033685172
O          -2.11210634314953    0.08578067837288    1.31288901120586
H          -2.99415780653749    0.30439977040770    1.61607979702651
O           1.32565552541959    2.43430013486087    1.00703789124676
H           2.05089607373550    2.89119150993364    1.43627748942571
O           0.54034475455092   -3.14151528830159   -1.06027881658560
H           0.97162867057951   -3.15674985024511   -0.20080393482596
H           1.09763822830437   -2.52475309319185   -1.59011589336155
O           0.51496166464077    0.38377294058734    2.39931681826766
H           1.03758741937210    1.70711110713901    1.63288563569045
H          -0.44646609785434    0.29095573333881    2.37333660734304
H           0.81921973964475   -0.16465130324049    1.64258091424784
O          -1.19458821760676    2.06001356515936   -0.13023769579974
H          -1.79139071128097    0.88010114557290    0.79435165109750
H          -0.46985746795968    2.52421846664930    0.30775532298200
H          -0.75665605884665    1.54705718162036   -0.84485092260025
N          -1.48362122555293   -1.43743095183676   -0.87643992752552
H          -1.73849558170619   -1.08608173545270    0.06923923980544
H          -0.77138803053535   -2.22579154848436   -0.84161956436095
H          -2.30490213030363   -1.69896500155512   -1.41209246810105
