    26
        -50.44707818  Gyration_radius:  2.51058335372 Dipole_moment: 4.738
 S          -0.08482598881346    0.49923811874591    2.38576217854383
O          -0.34433435032707    1.61862669506607    1.51445797748003
O          -0.42849520875592    0.63780008303924    3.74958613913205
O          -0.79138101842947   -0.74406284602468    1.75085303916031
O           1.41193798859466    0.10796481968450    2.28094881550228
H           1.59823701158884   -0.20854421643720    1.35702914767289
H          -1.30725539287260   -0.39072986375129    0.94578627084576
O          -1.92633546002040    0.33133541766149   -0.24550998599946
H          -1.89301112460031    1.19718040166136    0.17749296685912
O           1.84824177372268   -0.92331076188380   -0.07250910402629
H           2.74977920640274   -1.24484116712094   -0.12987480601988
O          -1.39226724787870   -2.06149653080324   -1.83092864600595
H          -2.14689909170368   -1.61667757413013   -1.43372516704673
H          -0.85991878284131   -1.36505506042711   -2.23700955694612
O           0.19049462280665   -2.87304448158612    0.19625196148926
H          -0.40616537348311   -2.76012171689949   -0.57681744497625
H           1.25977068392564   -1.74143330360664    0.01977563926750
H          -0.29845071523515   -2.54683513330713    0.96154783065838
O           0.15928554106085    0.35797437593262   -1.85321575497787
H          -1.18338905650957    0.34767566399359   -0.91255583457990
H           0.35299925336468    1.32020306573759   -1.72251928587827
H           0.84973690045204   -0.09368564005610   -1.34141497091737
N           0.63221495820706    2.82803662822506   -0.92711162027694
H           1.59401961948864    3.13933350283233   -0.87023434614525
H           0.34454145992043    2.55870967881136    0.01396771114550
H           0.07146978191557    3.62575982459204   -1.20003316386984
