    26
        -50.44707823  Gyration_radius:  2.51058226979 Dipole_moment: 4.738
 S          -1.62973729060617    1.12751722729480   -1.42155455312746
O          -1.84504367522408    1.27573632269455   -0.00344056539184
O          -2.32953572120236    2.00064156258755   -2.28479270442271
O          -0.08592643427836    1.21937798457388   -1.65879727369659
O          -1.93243796620751   -0.33656309716772   -1.83277594716799
H          -1.27883469241325   -0.93832711711287   -1.38639178307425
H           0.32252160485096    1.44433496856448   -0.75239089937614
O          -0.08921203676754   -1.88745878313020   -0.83790603562373
H          -0.21366080891963   -2.78679278743113   -1.14641055385616
O           0.72239400828726    1.69515004338227    0.69715876293728
H          -0.14542249316895    2.03241270592728    0.94791319599945
O           3.08095029610432    0.04343578802614    0.21501516971134
H           2.86631190132829    0.97392689959442    0.32996811274081
H           2.57588693365780   -0.42859430831504    0.88984933260039
O           1.87403128649179   -0.75838370878386   -2.05968817711239
H           2.47272544328972   -0.50446876512896   -1.32249902234567
H           0.69997816430245   -1.51707494472477   -1.35187236302826
H           1.42962979556706    0.05272898677613   -2.33501320593618
O           0.69058041378622   -0.78591819873136    1.57961606400090
H           0.43886644350219   -1.30441616879780    0.79830678482616
H           0.75771911315081    0.77597590176028    1.08576585009357
H          -0.15537345242800   -0.68431905330185    2.08410003509181
N          -1.79431089335143   -0.27176484992889    2.44205944053718
H          -2.46128124806083   -1.03347421420111    2.45513953567452
H          -1.99324296529782    0.29126630154508    1.61479472796867
H          -1.97757570639689    0.30505127401546    3.25384607198060
