    26
        -50.44707817  Gyration_radius:  2.51057015035 Dipole_moment: 4.737
 S           1.32880530827056   -1.96043230934323   -0.58280974896415
O           1.55528222526859   -1.43713712460876    0.74175674694899
O           1.81444391774755   -3.25701880742852   -0.86646567962853
O          -0.20935416073321   -1.86412778747030   -0.85257474661175
O           1.90219378075151   -0.96840944915781   -1.62758332206306
H           1.39448333874856   -0.11525068402100   -1.57460990145336
H          -0.62543666885757   -1.53761051954629    0.01883237721527
O           0.43364627850759    1.18468560677337   -1.63752370754895
H           0.72300582661103    1.77838001878858   -2.33268003453165
O          -1.02041172007290   -0.97015475807948    1.37740179818644
H          -0.22846880160114   -1.29863632313110    1.81862191907872
O          -3.02026229430728    0.64697705789707   -0.00410655486742
H          -2.99110151813016   -0.13074315829279    0.56106063987535
H          -2.41001958146020    1.28296105527942    0.39148471001501
O          -0.47082450458375    1.56972832743888    0.95061684812525
H           0.35392814346150    1.56967957670881    1.49861837200537
H          -0.14650220858767    1.58402077413062    0.03557603283827
H          -0.86116715962938    0.00975204631058    1.26977587673249
O          -1.75210568923212   -0.00459677217189   -2.29328710812684
H          -0.42911821583838    0.76657060736039   -1.96147288673906
H          -1.48599518934177   -0.91408922248688   -2.11112981574042
H          -2.36506635568818    0.25053368158744   -1.56833207722625
N           1.88924642628450    1.08392022387189    2.12386579912198
H           1.94648770934131    0.16320732930601    1.68805915656511
H           1.98057507631048    0.95336770288764    3.12380566734448
H           2.69373604675003    1.61442290741469    1.81309964943427
