    26
        -50.44707820  Gyration_radius:  2.51051102366 Dipole_moment: 4.737
 S          -0.59131965801274   -0.98853490918637    2.14961526499555
O           0.61992768073839   -0.20596029429198    2.14620271165895
O          -1.15593326456285   -1.31587904979899    3.40322331629559
O          -1.62288304349462   -0.23310392153307    1.24789357208821
O          -0.35662676997315   -2.29427635151356    1.34684231734046
H          -0.17803823912231   -2.06098505958458    0.39699291266927
H          -1.17317122051267    0.64251534721819    0.98327177908472
O          -0.10472778057872   -1.69579130662237   -1.17720426414216
H          -0.03836190666242   -2.49601654862411   -1.70128457442580
O          -0.28986687326018    1.83839121227286    0.64605732424607
H           0.27688112115002    1.72147240249054    1.41732953908562
O          -1.46714455829302    1.81287456942043   -2.02516212722465
H          -0.52811241172718    1.63074300342243   -2.16088968568411
H          -1.51858403914062    2.34018373377259   -1.22245100773409
O          -2.43453116582798   -0.62973371550947   -1.41610939542943
H          -1.03665004483518   -1.33205737257414   -1.33035421336874
H          -2.64489397418293   -0.52304075682545   -0.48039876370870
H          -2.22885885842431    0.27032924524585   -1.75368978152948
O           1.12035220823614    0.78329380814192   -1.31173602108881
H           0.25719987198903    1.50800376680446   -0.12129081674809
H           1.94426325968809    0.67648851620034   -0.77292974444864
H           0.76920566552981   -0.11870154524980   -1.38766420606518
N           2.98350027587798    0.25089169770686    0.53962765795927
H           3.57350283680212    0.97096749576746    0.93795033890734
H           3.55594692368024   -0.57492015689603    0.41493469575588
H           2.26892397479995    0.02284616983459    1.23122315150857
