    26
        -50.44707816  Gyration_radius:  2.51058488093 Dipole_moment: 4.737
 S          -1.76044406466353   -0.32300398411089   -1.65688527016509
O          -0.68037439335379    0.53916567265750   -2.06870684759232
O          -2.63348075393627   -0.80338706546513   -2.65900559809333
O          -1.11901662444087   -1.50401392654794   -0.85589757222025
O          -2.59480380185245    0.39285579797712   -0.56331348575447
H          -2.02478161985515    0.52885396294793    0.23995065345817
H          -0.11058390933248   -1.37314003182630   -0.92622058760299
O           1.34306157965952   -0.94355094023293   -1.08832556264199
H           1.16685090970525   -0.41230285583602   -1.87352360383947
O          -1.16928045135258    0.55295918460164    1.61259115626035
H          -1.69512116137062    0.92054816137765    2.32522485406645
O           1.81067588098682   -1.89686768484746    1.63165761360659
H           1.98592080621259   -0.94729280914067    1.66266745975125
H           2.00844441179115   -2.17046715101715    0.73098977465630
O          -0.87098060338071   -1.98629364081865    1.90435754506233
H          -1.14238208362431   -2.26926912352544    1.02262614300958
H           0.10623845411530   -2.08869364177756    1.93468605855872
H          -1.08750788450077   -0.43790133493912    1.80159806752841
O           1.47307404341634    0.84564404087558    0.83984446725315
H           0.58140490976021    0.83455488937349    1.22384386701198
H           1.46667648819178   -0.27680395100302   -0.35531879461304
H           1.46330107661464    1.62566913970572    0.23005302187551
N           0.98758333316788    2.67708721216095   -1.05591174378785
H           0.47097008724125    3.50777674050280   -0.79472532915857
H           0.33631648017310    2.05159713364166   -1.53077381952451
H           1.68823888068494    2.95627618527069   -1.73148245707481
