    26
        -50.45812149  Gyration_radius:  2.4245334144 Dipole_moment: 3.422
 S           0.54187996042318    0.52644961978450    1.63670565456403
O           0.43888394409901    1.48701866959356    0.43117312451672
O          -0.11437509704359    1.15518913496190    2.73353115749268
O          -0.22162574230036   -0.73457885984202    1.18600343765953
O           1.90885103947411    0.11831090131931    1.81970003671419
H           2.43777370390655   -0.86775391069662    0.65191038132320
H          -1.15030625839019   -0.47065227407420    0.73702740084926
O           2.72456423078375   -1.37599512145459   -0.14954042277092
H           3.65551603792255   -1.56584941409482   -0.02239352026463
O          -0.73322542240429   -0.76178800534929   -2.23280358588889
H          -1.08365184444701   -1.11756732622987   -3.05037004878197
O          -2.26738829983115   -0.04453722373481   -0.02066075451157
H          -2.34665710501400    0.90265035394150    0.31214624626490
H          -1.89104119693737   -0.03593797202329   -0.91700607181396
O           1.56251852509193    0.56356475790079   -1.63940134367743
H           0.77000984623182    0.15393454802118   -2.03663051443886
H           0.95046890474975    1.16530871222483   -0.39638208011099
H           2.10208636611498   -0.16483018100692   -1.27557226002036
O           0.34605453051139   -2.65030381170433   -0.73464566381470
H          -0.04050577750619   -2.39586271581456    0.11293270512114
H          -0.39176544823426   -1.53851298867467   -1.71356917914914
H           1.28320944835825   -2.40929676820517   -0.65049819449897
N          -2.19988303951219    2.30627640434703    1.14406122127836
H          -1.75004960986657    3.03556427489774    0.60485220902480
H          -1.53048817482439    2.00999723850989    1.85510810703579
H          -3.00085353135375    2.70920193737152    1.61432194788960
