    26
        -50.44707800  Gyration_radius:  2.51020169629 Dipole_moment: 4.735
 S           0.74497461802903   -1.87091141678098    1.37440785980984
O           1.12893784058190   -1.94235916098555   -0.01374560782042
O           1.39845696394980   -2.73681802509951    2.28018377536627
O           0.90040534002070   -0.37709850432464    1.81267913942457
O          -0.78662141658604   -2.08360202130553    1.49065588207331
H          -1.25226609711885   -1.33116546244541    1.03716050361577
H           1.30835639604108    0.10706766908854    1.01360245896598
O          -2.00552382200431   -0.00651084899377    0.49446330679018
H          -2.95131598281587   -0.08356522845460    0.63226590762539
O           1.83715659147257    0.63837680490061   -0.31329918739757
H           2.14992527447324   -0.22470134210376   -0.60850982644864
O           0.29843483798509    3.06836188767547    0.18039209213711
H          -0.08278562731476    2.68751180995882   -0.62139617032143
H           1.21696755110985    2.78325196703321    0.19498395298001
O          -0.97357717461738    1.69728666338288    2.12372519179042
H          -1.67670658326174    0.68333796156060    1.15787300690725
H          -0.25696222428320    1.15317030110815    2.47234393375963
H          -0.55242253056887    2.34788073939080    1.51909923916334
O          -0.44599996502504    0.92897634725691   -1.59280998424509
H          -1.11018104700059    0.64301920803149   -0.94496020482190
H           1.00573108987036    0.79990900432359   -0.84234826219363
H          -0.31837614876136    0.13639889150314   -2.17247941159501
N           0.03170337655188   -1.48612549026149   -2.65269023753487
H           0.42877256810964   -1.82316133299930   -1.77538116342744
H           0.72485250353606   -1.63243000662715   -3.37616186208914
H          -0.76193633236773   -2.07610043484425   -2.87005436248859
