    26
        -50.45019012  Gyration_radius:  2.49741341196 Dipole_moment: 5.276
 S           0.65367919675632    0.53571524996310    2.26529021152996
O           1.84014140247410    0.60081781456619    1.44161537260287
O           0.70415714371474    1.16909076515025    3.52827499095344
O          -0.52559779877006    1.09514488900574    1.40603219406537
O           0.23211463625099   -0.93511103308250    2.45352047429373
H           0.25379232568799   -1.43159234720583    1.58066839621712
H          -0.09992972322997    1.68904658607908    0.69608569689963
O           0.21735950156138   -2.28207127335649    0.25506701571652
H          -0.15938323020889   -3.14270730099517    0.44527658082405
O           0.84942998679184    0.51390330206911   -2.26478954756212
H           1.23564452259204    0.63321186037052   -3.13319688318574
O           0.80877304309222    2.37522580278647   -0.31856201375249
H           1.61002541024775    2.09379140454718    0.14564822160251
H           0.75597292010329    1.81391820959811   -1.12310718424054
O           2.40510420598425   -0.89488666541621   -0.71256641527080
H           1.49292607223374   -0.04722887403848   -1.74241099479826
H           2.40066382771656   -0.34515022472807    0.09385968606436
H           1.86210805330701   -1.66168479053665   -0.48206345653051
O          -1.25143867976392   -1.13533422286487   -1.50471538857826
H          -1.93939731968183   -0.59754728277704   -1.04034407023844
H          -0.63837056702397   -0.49884463710702   -1.90774851689193
H          -0.39021562964680   -1.85262901854483   -0.43790892062664
N          -2.96329112933957    0.40435231836232   -0.08960357633361
H          -3.74184591468985   -0.03798257177577    0.38212909475013
H          -3.31346947098823    1.23271507116869   -0.55424387431044
H          -2.29895278518266    0.70583695875063    0.61779291681578
