    26
        -50.44490800  Gyration_radius:  2.47092808675 Dipole_moment: 4.937
 S          -0.35556669681348    0.81874380070205    1.44142600217785
O           1.08789372237855    0.89603871085897    1.40114300209760
O          -1.01827029208791    1.72312551086371    2.30446987952676
O          -0.84494914330569    0.96087612503057   -0.02882830185457
O          -0.77694387577154   -0.62088271293010    1.79196836385427
H          -0.35145245841778   -1.28899649783136    1.17350171167554
H          -0.19094386174590    1.60411320842980   -0.47297170699235
O           0.38064832774907   -2.32814609055085    0.23715739287186
H           0.50830653187253   -3.15838846243154    0.69985663457867
O           1.83332654634169    0.16574959959006   -2.32919841820938
H           2.11695672109355    0.15059990130292   -3.24422915664509
O           1.08548707847588    2.33496583847778   -0.91085627206601
H           1.53376543040661    2.22067116115893   -0.06205821282111
H           1.47632999910781    1.67303817524186   -1.52053401497611
O           2.53769512884976   -0.94311445719071    0.10443429586134
H           2.53445357521603   -0.56801828842208   -0.79194878931945
H           2.19599252528412   -0.23830540079471    0.68852182503724
H           1.28981556700241   -1.89068756815208    0.16582277846218
O          -0.52599941545230   -0.97724868260467   -2.02247503510277
H          -1.04610168137954   -0.31663945035977   -1.54646734067163
H           0.94294385881779   -0.27680532254929   -2.30185385398708
H          -0.36211077898383   -1.68513311087996   -1.38303467697110
N          -3.58907263185130    0.42703383595710    1.37531298717907
H          -4.36411657162848    0.69817924923083    1.97049360243379
H          -2.84043462593175    1.08840566878532    1.54746736084358
H          -3.25765297918375   -0.46917473095287    1.71287992304790
