    26
        -50.44551804  Gyration_radius:  2.51916581901 Dipole_moment: 3.367
 S           0.44970726808436    1.99050104586174    0.40431187911027
O           0.35704104036943    1.63740844514792   -0.98050480797236
O           0.83048349370590    3.30447590813117    0.76262123859283
O          -0.90824374840738    1.66813392661221    1.09933657352423
O           1.43292022409947    0.98963250355661    1.09630017628564
H           1.43012325451865    0.09827541381465    0.61734328203557
H          -1.30959615376687    0.85672911163062    0.67500994630964
O           1.46836824216939   -1.32492454807593    0.01496009828890
H           2.32173003923569   -1.49106038788182   -0.38788150862292
O          -1.93362421100759   -0.54663894562469    0.25281629955300
H          -2.86163461751460   -0.61403970097462    0.48418795162040
O           0.13588738376198    0.39453161226101    3.46073173702966
H           0.80974784333359    0.71225179827819    2.84187100909191
H          -0.57254910518832    1.04230974324218    3.42550566738614
O          -0.48816933799072   -1.79696396212343    1.98884799857733
H          -0.28174044725870   -1.11695538576169    2.66410248234464
H          -1.43224280540392   -1.11760745949641    0.91658092519572
H           0.32815275256227   -1.93514104035805    1.49047055206209
O          -0.32195694701408   -1.61048910511329   -1.79495766519457
H           0.77716550038805   -1.45548466376007   -0.72158260723595
H          -1.07507766029694   -1.24803908278533   -1.30843043547027
H          -0.13006420399362   -0.95914317939118   -2.51614408664435
N           0.19342537302256    0.37188778563868   -3.54019929984605
H           0.28892886667434    1.00166504523360   -2.74545972082697
H          -0.55731485669347    0.72407334825736   -4.12070154403839
H           1.04853284261113    0.42461177368045   -4.07913614115964
