    26
        -50.45106542  Gyration_radius:  2.37015734973 Dipole_moment: 7.549
 S          -0.96627786693275    0.31444627100222    1.70395806773830
O          -0.10088155099493   -0.18357016736846    2.73356739719124
O          -1.81100166270115    1.44426117233683    1.97781080884721
O          -0.03140619989232    0.78925089840806    0.49444869406274
O          -1.75319181743702   -0.76880959284191    1.04988200021327
H          -1.02306846687943   -1.82296198440516    0.09732998325950
H           0.72644821877377    1.32534418448372    0.81440257824836
O          -0.55393205205772   -2.39756472225891   -0.56236148120447
H          -1.00281374482329   -3.24375120524965   -0.55048750129944
O           2.32251609941079    0.06213833646644   -0.96200107130775
H           3.06167394952020   -0.39406692137982   -1.36722539785075
O           2.18383026325680    2.21703527356803    0.68084964362330
H           2.06558931776312    3.01832466143802    0.16789927716794
H           2.46908237559757    1.52193703989681    0.05672287389728
O           1.58101392309627   -1.49886151653637    1.03451300835076
H           2.05311136313195   -0.50029836325591   -0.18331248085146
H           1.08015024398313   -1.05311750461470    1.74466963822588
H           0.93480942933996   -2.03041381474930    0.54666866439129
O          -0.24615586949758   -0.13794520218432   -2.13340237517983
H          -1.44058617621109    0.61053677307809   -1.42278222231919
H           0.60355233788890    0.15402685202693   -1.75579877062549
H          -0.35322972631994   -1.03713440036934   -1.77457909995024
N          -2.28209540722035    0.87151864252707   -0.79907783276398
H          -3.15756278295636    0.93978477260190   -1.30810200433600
H          -2.09098941762995    1.70749305522176   -0.24296236474534
H          -2.26858478020185    0.09239745215991   -0.04063003278348
