    26
        -50.44551803  Gyration_radius:  2.51919813813 Dipole_moment: 3.366
 S           1.45145141502542   -1.47265297843353   -0.22993295840019
O           0.10016869096316   -1.93500335808542   -0.12375850449056
O           2.50397292743152   -2.41394006889838   -0.30786787763171
O           1.56187408845359   -0.51294648529029   -1.45375917848996
O           1.73513538571872   -0.51920403378637    0.97741935323106
H           0.88188587742846   -0.07132050437281    1.28614056944781
H           0.70614439756096   -0.00528579523810   -1.55097305452878
O          -0.33610844124788    0.72368957716972    1.80981045041184
H          -0.56560969499659    0.43373426754924    2.69375116481046
O          -0.49940055067808    1.02891908379338   -1.67112758701059
H          -0.54823437153416    1.42804011508483   -2.54153249100560
O           3.10659284867471    1.56880629826800   -0.19990124136129
H           2.90477046060573    0.81462860329110    0.37327009480184
H           3.24961229695706    1.19741183299638   -1.07413028011246
O          -2.38412563319335    0.36915577555960    0.31227991373271
H          -1.16850514829011    0.58209289795059    1.24027850180031
H          -1.96268605935701    0.52493225287277   -0.54410345061552
H          -2.60846593055481   -0.59549383692090    0.32921404269988
O           0.62681528651209    2.65133678458327   -0.00810636288288
H           1.58074893375863    2.43349222242260   -0.06816729154217
H          -0.12754307289295    1.73546299892513   -1.05422497789218
H           0.32416147755204    2.29515712818384    0.83770693948984
N          -2.70874319508180   -2.30188684809371    0.27212317350007
H          -2.93974600343478   -2.84258941483149    1.09592784333008
H          -1.70593167765087   -2.38793731438027    0.11627958926013
H          -3.17823429772558   -2.72859921032009   -0.51661638055432
