    26
        -50.47068159  Gyration_radius:  2.4314495475 Dipole_moment: 3.175
 S          -0.62074011298162    0.63184586080181    0.22106500953247
O          -0.60562788938679    1.92722071599587   -0.63777394875186
O           0.17565445716971    0.96826534822823    1.40167226245156
O          -1.98179256001675    0.26750354357233    0.54384958794698
O           0.02983423610341   -0.42380434937730   -0.56562859231280
O          -2.48609855805736   -0.97831959938580   -1.72678757839692
H          -1.60612097620165   -1.34693254817792   -1.85179345532548
H          -2.47540135142845   -0.61407940971454   -0.81623750257645
O           2.67578218159616   -0.72513819414779   -0.28345455684396
H           1.76568288423051   -0.75747858272945   -0.63933762234184
H           2.86192299388707    0.23461703714974   -0.24642050065129
O          -0.62185729202688   -2.22681317997076    1.26057918253898
H          -1.45181872580518   -1.85895771155652    1.57610832830816
H          -0.41887220092312   -1.71122209261688    0.45428499303023
O           2.27431617700171    1.92338238935923    0.03224538925791
H           1.92265798790641    2.43483059877486   -0.69919060307463
H           1.50364991604354    1.72324634928321    0.59498574516394
O          -2.27457581280359    1.50709636917991   -2.56604713255087
H          -1.21749905017629    1.80764463076509   -1.42206271670528
H          -2.42568317545113    0.53661806770533   -2.42874035907643
H          -3.10553918470695    1.93861113783302   -2.35553509274079
N           1.64306666312940   -1.07255340670232    2.07178200073576
H           2.24597657514999   -1.06472004587455    1.17583895411653
H           2.18252458418241   -1.15430065687439    2.92598572239399
H           1.10398371265621   -0.16272316193286    2.00456946489638
H           0.90657451091020   -1.80383909956187    1.97604300096349
