    26
        -50.44551804  Gyration_radius:  2.51913240205 Dipole_moment: 3.367
 S           0.46140306844216    0.75939132416477    1.88098374644327
O          -0.91433617512625    0.42976238633848    1.65822524357400
O           0.84369919145033    1.35630398681134    3.10468961570779
O           1.32761332777216   -0.51960040542487    1.66915514944285
O           0.93369533647765    1.68815860987463    0.71402352733474
H           0.40324581882762    1.50184753629265   -0.12727723834687
H           0.91596331733687   -1.07922741180611    0.95019050597383
O           0.50106733446636   -1.93453548763781   -0.32770719788614
H           0.86299880325872   -2.82201489585912   -0.30174017827239
O          -0.28942885909406    1.26877090775942   -1.48968011659543
H          -0.82461500706171    2.02835855488378   -1.72356333750987
O           3.42076049183987    0.66479035814150    0.08644186907393
H           3.53242386790159    0.04968950175142    0.81576165897947
H           2.73082002673255    1.28230668374346    0.37054842349007
O           1.91839749818314   -0.43933004570095   -1.88397105118097
H           1.04450366306208   -1.42522226932396   -1.00835081367146
H           1.29675287939369    0.27465378032060   -2.07800327491807
H           2.59835386366142   -0.05362126529579   -1.29247659076581
O          -1.82801058976159   -0.77772226049444   -1.40472521463802
H          -1.21268536477832   -1.40142487157179   -0.99530769858879
H          -2.52593455252699   -0.60334591191495   -0.72372019680488
H          -0.92197247224482    0.47068135347593   -1.47384808801963
N          -3.49795126928805   -0.25152975262539    0.63853319713222
H          -2.68694877903641    0.03505102441081    1.18396270074641
H          -3.93707434753644   -1.02242442562400    1.12586573149634
H          -4.15274107234891    0.52023300530558    0.63198962780430
