    26
        -50.44406825  Gyration_radius:  2.49689381027 Dipole_moment: 8.340
 S          -2.36878423596922   -0.75934664323412    0.46686981903437
O          -1.86408389820539   -1.13800026893137   -0.82821498811005
O          -3.19489156674610   -1.70010165569773    1.13375479077921
O          -1.10611382278933   -0.43785371109896    1.36756216169398
O          -3.03111449421686    0.61273655722407    0.39560994487204
H          -2.36856824750046    1.18360575180166   -0.14387572988878
H          -0.37080488322103   -1.06401152733543    1.14590823336665
O           0.87369843759304   -2.04372409514407    0.72911338194224
H           0.70637432292158   -2.91754298221576    1.08574781900682
O           1.09797598932762    0.63136556243237   -1.84343848944130
H           1.44770573863097    1.38037839743712   -2.32820116326728
O          -1.21279324926002    1.87796834584404   -0.81459141679294
H          -0.63348821776153    2.12089256502018   -0.04439834244595
H          -0.69941627741896    1.23011438230580   -1.32203619900968
O           2.50421711391146    0.15071719838098    0.46268259213668
H           1.95913368229185   -0.61158574726096    0.72569878557142
H           3.38762674326319   -0.19016825339971    0.30966994224089
H           1.59288841709159    0.57718993979262   -1.00203290487424
O           0.41177452431257   -2.05027342651426   -1.79868649913526
H          -0.53930478656691   -1.88658889951527   -1.64640130742927
H           0.74651374189494   -1.18969820167507   -2.09406584987202
H           0.74599270948050   -2.11493325800435   -0.27538308901985
N           0.35912241809421    2.15044164372011    1.34408466128979
H           0.42812274412519    2.96658473961011    1.93765510498154
H           1.29272775913015    1.78451498939653    1.19557666189921
H          -0.16451068241558    1.43731858706840    1.84139208046539
