    26
        -50.45812147  Gyration_radius:  2.42453518563 Dipole_moment: 3.423
 S           0.63217713412520   -0.97534123127680    1.37790399345763
O           0.04331551595394    0.44297369740826    1.54664157357166
O           0.01626536087205   -1.80626320335310    2.35732711126526
O           0.21305836775247   -1.39548893405447   -0.04472848524199
O           2.06891778729825   -0.90875142585687    1.36490737983444
H           2.65970242489213   -0.21845755481817    0.02692583257904
H          -0.81447327537215   -1.17389555602844   -0.21438670966791
O           2.94336905548909    0.30929780504014   -0.76301958430881
H           3.89599516836267    0.39284671959547   -0.69610477154305
O          -0.84414848394649    1.31336084414540   -1.91517410170981
H          -1.20717595297523    1.73519057237453   -2.69496953210731
O          -2.11997502823948   -0.67551923081657   -0.43924390559500
H          -2.41949153981386   -0.54905551862906    0.51392100168883
H          -1.92248646425085    0.19339507883735   -0.82806827248580
O           1.02004263705760    2.09641411026303   -0.10103052372332
H           0.47841873018859    1.14385851123947    0.93870190103818
H           1.80563706593485    1.62008686063429   -0.43274969696488
H           0.32937340975324    2.00938431328442   -0.78592631349995
O           0.98753562148176   -0.48268241308179   -2.54416980689297
H           1.81078013805555   -0.16603691274955   -2.13750572439783
H           0.69369500996003   -1.19355693299405   -1.96030063850385
H          -0.20382059090224    0.62577373974078   -2.24169032476919
N          -2.55676942363092   -0.56792206295695    2.14629981763199
H          -3.34872465832134   -1.01728076801971    2.58892897905877
H          -2.44258427220467    0.34945304719954    2.55891387470191
H          -1.71863373751610   -1.10178355512896    2.37859691656963
