    26
        -50.44585801  Gyration_radius:  2.49345497122 Dipole_moment: 5.771
 S          -2.35223654260357   -0.18994440791003   -0.73520117440596
O          -1.52610903514747    0.61003544069851   -1.60460734072633
O          -3.02115384979749   -1.29000827871574   -1.32753152265415
O          -1.43410941496576   -0.70780392321380    0.43011345451372
O          -3.30947536324346    0.72001968087464    0.04493260359469
H          -2.73678346099853    1.50431183005090    0.29292703607552
H          -0.75810992315483   -1.35977902699245    0.03339975277141
O           1.62243372877951    1.73304377320695   -0.40749325930134
H           2.37286540148749    2.27763443831023   -0.16978483793453
O           0.26811120930331   -2.19157392645071   -0.73467567077073
H          -0.23678040344617   -2.77703250466461   -1.30361160434833
O          -1.44935300834658    2.46184022715573    0.40033856593564
H          -1.08637678368688    2.19319480805803   -0.45707734967174
H          -0.79850601092360    2.20686307158473    1.06750330548855
O           0.96635107268161   -0.20059360949354   -2.19760674303713
H           0.05731300682413    0.13661491464570   -2.28192277202151
H           1.40444254334428    0.47402631253484   -1.64624197150076
H           0.64991286997007   -1.47104949182679   -1.33796102835381
O           0.46135720148491    0.74834314128983    1.80506747906065
H          -0.32086676924323    0.25040802665861    1.52523097654842
H           1.14367073299786    0.04620520326402    1.92725328555249
H           1.22463017599459    1.41300526930042    0.43252384337428
N           2.09578700502532   -1.40876778145588    1.63233288083514
H           3.03889169397992   -1.26097263655235    1.29495542222639
H           1.57824164010584   -1.87785721942428    0.89511321714191
H           2.14585229358299   -2.04016333091934    2.42202345161602
