    26
        -50.44406794  Gyration_radius:  2.49650716324 Dipole_moment: 8.333
 S          -1.49411533799814   -1.73185586350195    1.08026877758482
O          -1.13629870417555   -2.02240438079685   -0.28459493128789
O          -1.56525727703697   -2.83199869482914    1.97289666515633
O          -0.42765726281000   -0.68998259956680    1.61514800383662
O          -2.76692848303936   -0.89273574893344    1.12604899060380
H          -2.61434075683219   -0.16726858903801    0.41444138751554
H           0.46460548648641   -0.90500324205295    1.24155086097771
O           1.92488449114560   -1.20665195795604    0.56471973116767
H           2.30283117412392   -1.97951235633811    0.98732750347796
O           0.22696436223810    0.77538618403222   -2.08311358192764
H           0.03856195581093    1.50908800550738   -2.67005646324556
O          -2.13954398335352    0.88357299126599   -0.55401862325858
H          -1.62925838227261    1.50162970355142    0.03350484862588
H          -1.47796566258627    0.49648991764883   -1.14847839471377
O           2.10461599721234    1.42801006839953   -0.19279129062607
H           2.09347902305933    0.55154633356922    0.23034796601236
H           2.98685622611801    1.54228712992667   -0.55149100477712
H           0.83464125412014    1.10809308047384   -1.39320483419672
O           1.04195185294197   -1.85049556773991   -1.76090044080764
H           0.19386919688062   -2.15030208301526   -1.37956123452472
H           0.82072379341134   -0.99744142204407   -2.16495722880739
H           1.65642557112173   -1.49403221431418   -0.37107299053266
N          -0.54019583406849    2.24034245162548    1.12199000738599
H          -0.51063458128987    1.45307274049419    1.76178048305113
H          -0.78563898144496    3.06872158039766    1.64813352049850
H           0.39742486217252    2.36144451328305    0.75608227281279
