    26
        -50.44406830  Gyration_radius:  2.49693547548 Dipole_moment: 8.341
 S          -2.49765488537656   -0.37700082503187    0.15884815317646
O          -2.07798950493127    0.36053592682958   -1.00530075475379
O          -3.56415225037550   -1.29628119274669   -0.01382028197444
O          -1.22025484665845   -1.14877642621458    0.68961904077771
O          -2.76447584080717    0.57513919334463    1.32010924015203
H          -1.95830647258486    1.21221299234633    1.31298941822705
H          -0.67413095437820   -1.45649799891141   -0.07786949619497
O           0.27250826637169   -1.89907976318290   -1.33870891597463
H          -0.13353276384602   -2.64936188509385   -1.77572474644415
O           1.27761802847239    1.64289699447672   -0.81940266625772
H           1.82931803916410    2.39297577772287   -0.59285576601524
O          -0.64034504022019    1.93569175082214    1.22626573005864
H          -0.03919022365985    1.34787082515216    1.75622631152054
H          -0.30512738105509    1.88596226185774    0.31740359768262
O           2.43886033435195   -0.73931420114398   -0.11043210316336
H           1.71651539005471    0.84534678477126   -0.46282978689375
H           1.70220393970504   -1.28342213231368   -0.44008559906795
H           3.20232635690856   -0.96836460467641   -0.64400950585324
O          -0.10420744080193    0.21634429303755   -2.74808834123203
H           0.15832990969146   -1.10733414853953   -1.96354541877050
H          -0.98039767308746    0.35776320383174   -2.33967536653899
H           0.45704617205299    0.87972146106245   -2.31814780369258
N           0.88523852253306    0.06671382521761    2.40294964807478
H           0.17601858515194   -0.64185451106651    2.24477183968963
H           1.15283675804887    0.03685962666508    3.37796095873043
H           1.69094499528113   -0.18874722821202    1.84335261473583
