    26
        -50.44406810  Gyration_radius:  2.49672086176 Dipole_moment: 8.336
 S           1.43215617737792    0.46278818472440   -2.03386576689596
O           0.34654374645065   -0.45511088076231   -2.26665286402405
O           1.73594645148910    1.37495133234232   -3.07687358317624
O           1.06796550168403    1.26967311216141   -0.72041325172981
O           2.67449250688912   -0.29328284911077   -1.57435592363830
H           2.32249588563353   -0.94517191834238   -0.86227506774552
H           0.09284927288160    1.44419172152135   -0.69610519434924
O          -1.52737446063217    1.66573728996355   -0.60988023076848
H          -1.77502943523475    2.35100613026972   -1.23267910272092
O          -1.13613000733085   -1.78146446164084    0.72964312312551
H          -1.14219114896429   -2.50253783095686    1.36075160552269
O           1.63950979100792   -1.70833548126824    0.24173137241767
H           0.69801074360272   -1.80684544008995    0.02995630856960
H           1.66869715192191   -1.06350765527250    0.99730996530887
O          -2.18743297881906   -0.62958250399086   -1.55784488752756
H          -2.04147848525899   -1.23428522290870   -0.81426472574992
H          -1.86992065463365    0.79118458246222   -0.99476091485468
H          -1.35382379767487   -0.68374100982410   -2.06451598278243
O          -1.52015828351552    0.64921531619523    1.94234282122810
H          -1.47046115743962    1.15629675127405    1.11301266648377
H          -2.40909842563724    0.77345085272000    2.28060167182205
H          -1.19275256996169   -0.95063832955744    1.24186185894392
N           1.51850463519373    0.27605981624654    2.04594636846848
H           2.17736517756519    0.44885158803537    2.79382248721919
H           0.58209821209067    0.42073739318550    2.40631260374357
H           1.66921614118457    0.97035949264883    1.32119465315411
