    26
        -50.44530618  Gyration_radius:  2.42532233189 Dipole_moment: 3.789
 S           1.67360425539437    0.99827595563551   -0.23628391046977
O           1.60944214072551    0.68648205997497   -1.63708202470714
O           1.55496988038015    2.36411744465606    0.13967928816470
O           0.59049912445536    0.15625208480188    0.49383255310321
O           2.96424391442950    0.37604636669199    0.35154258852177
H           2.88290343135382   -0.57552221223756    0.06003365290596
H          -0.08336323069168    0.65021227189455    1.04519165116352
O          -1.24038926334082    1.00429499776727    2.09541787320921
H          -0.87242986033199    1.22509716674443    2.95343312688499
O          -0.53009930369692   -2.23322250990514   -0.46801481611090
H          -0.94561906190846   -2.96941989360982   -0.92122051809985
O           2.21253802109310   -1.83749114252707   -0.76418007411999
H           2.11520348633473   -1.29369687081376   -1.55602395027768
H           1.29749449502881   -2.04821166564085   -0.49280175244596
O          -0.93886605355818   -0.15478198526052   -1.99623782188711
H          -1.33179275422160    0.62561786986558   -1.54694495034687
H          -0.01639453908099    0.11496334481008   -2.12980254870994
H          -0.73334990495522   -1.42240679035027   -1.01973943381229
O          -1.42648998911168   -1.63360356934451    2.01954666151729
H          -1.14896378177685   -1.81666727543046    1.09554186807934
H          -0.75138253753444   -2.03339043927966    2.57068059649689
H          -1.49898260804640    0.04856907210396    2.12792182594172
N          -1.36490195365328    2.20903460311764   -0.69514833836370
H          -1.75166757760141    2.08940389372159    0.23439879224666
H          -1.86679949356207    2.96696497142005   -1.14151576372246
H          -0.39940683602754    2.50308226124340   -0.58222456517318
