    26
        -50.44585806  Gyration_radius:  2.49340239949 Dipole_moment: 5.765
 S           0.48155970133684   -1.81164572789340    1.61073413874819
O           0.32758395501184   -2.25927097881962    0.24901989799783
O           1.70089334011948   -2.13923321016405    2.25441962575513
O           0.29901720006391   -0.25092486737557    1.60980773224098
O          -0.74161242637921   -2.23680623472781    2.43295820558238
H          -1.51090889793951   -2.06571076318883    1.81370270607681
H           1.08511427278068    0.15859583121306    1.10608548107671
O           2.23943520617919    0.59853872788408    0.20660816514031
H           3.02313742428199    0.16252087546828    0.54874248993750
O          -1.15728377852846   -0.06236447744057   -2.11094455767528
H          -1.71829531775252    0.30705224568078   -2.79291915369458
O          -2.32074097755678   -1.64151590613266    0.49066611471504
H          -1.60880128079386   -1.89628146677486   -0.11544984843195
H          -2.45496720569047   -0.69163643929204    0.37468897747438
O          -1.60635451675559    1.18348797048457    0.22579505769655
H          -1.06514482465459    0.74378824710453    0.89801133551836
H          -1.06579722995609    1.97187960043135   -0.01852877563162
H          -1.37090600111626    0.41283755685195   -1.27740133631342
O           1.41999352349559   -0.84092117146675   -1.75528474785554
H           0.56920423946672   -0.49511345454005   -2.08314717663164
H           1.98849135010923    0.10370068312772   -0.64246148463302
H           1.15366283894360   -1.58118995318751   -1.18240263355309
N           0.34146041480149    2.95856849674551   -0.41450930530565
H           1.12190052509520    2.35129017649536   -0.18312883094589
H           0.43068833784715    3.79919772435344    0.14247554353395
H           0.43867013759052    3.22115650516403   -1.38753762082200
