    26
        -50.44530617  Gyration_radius:  2.42533990632 Dipole_moment: 3.792
 S           1.82638379196070   -0.40591054220092   -0.59436128882073
O           1.32944382934629   -0.45375144363180   -1.94127053533377
O           2.75014743174348    0.62493469379743   -0.27025846903818
O           0.60645959640477   -0.33945781089382    0.36610385386809
O           2.40296508835208   -1.79603824486238   -0.22884040130410
H           1.63925016241217   -2.39897887385928   -0.45286797694557
H           0.56720352650796    0.42646285616158    1.00954533621185
O           0.17588629833566    1.37561432419424    2.23906907421610
H           0.73187884652825    1.20086055746246    3.00109367250844
O          -1.99463978529562   -1.20208775006647   -0.25047010785071
H          -2.87201740992488   -1.40465764729679   -0.58092330038383
O           0.15674337209127   -2.77060610769717   -1.07427401496012
H          -0.58630852512283   -2.32044279534889   -0.62642505019916
H           0.33086655211895   -2.23621804200648   -1.85939163761274
O          -1.79100586963206   -0.39120254990751    2.32859893051707
H          -1.87808600473386   -0.62589314776842    1.37901145785590
H          -1.50111674606871   -1.19543012624651    2.76264930970629
H          -0.66085642861594    0.86083527278991    2.36642834260097
O          -1.10369327148194    0.72239683125204   -1.77523329091448
H          -1.67029086964329   -0.42551518182906   -0.79350580210797
H          -0.76483246196773    1.51220492927318   -1.29919903348454
H          -0.29139725391943    0.29662719791682   -2.09216966241558
N           0.44959934045628    2.59584652113247   -0.53460531370055
H           0.54563858663156    3.52918811505896   -0.91570347822870
H           1.35029939045231    2.13429710648477   -0.61853246747310
H           0.25147881306438    2.68692186806783    0.45553184331499
