    26
        -50.44585803  Gyration_radius:  2.49333887601 Dipole_moment: 5.765
 S          -1.55903697450704    1.00456264719673   -1.63319856929840
O          -1.89756419243023   -0.34245667562458   -1.24685699440716
O          -2.55432362923753    1.99334324592705   -1.43261040833720
O          -0.26400376177587    1.40413867940771   -0.83792581139975
O          -1.01875144337971    1.00723225211723   -3.06890401783389
H          -0.43383554405234    0.19401753327239   -3.10054358823385
H          -0.50686004238165    1.46509408747556    0.15039738584612
O          -0.99684455420127    1.37064370736297    1.59456845048523
H          -1.81182643671851    1.87641156804025    1.63151646875736
O           0.55098068647700   -2.30848042081402    0.40723365276137
H           1.14481001981242   -3.01839251982650    0.65144621608003
O           0.31617889339893   -1.14785100741692   -2.62745860545452
H           1.11086641862233   -1.01119565520033   -2.09493687224021
H          -0.38586711471432   -1.41182644502928   -2.01384083033624
O          -1.69266052183511   -1.08633159379608    1.32744776070755
H          -0.90077827672927   -1.63842412329951    1.18933551814434
H          -1.26899488354647    0.39371830338270    1.61606157761993
H          -2.03403499409500   -0.95665816284051    0.42538035549220
O           1.95763560450632   -0.17180254227115   -0.41107317804063
H           1.32284415486758    0.49917707851941   -0.70256864386808
H           2.18061705094932    0.11259040673053    0.50703725091524
H           1.11081864468082   -1.56087064262865    0.10083358625777
N           1.97557861336938    0.72411027338411    2.14846037849088
H           2.03867602755810    0.03614682267952    2.88866522471058
H           1.02501186463670    1.08166364811369    2.14458206261740
H           2.59136440073239    1.49143953513991    2.38695162055636
