    26
        -50.44406818  Gyration_radius:  2.49678946697 Dipole_moment: 8.340
 S          -2.04053206111073    0.25333491658925   -1.47520628264294
O          -0.95328942748991   -0.47199165186885   -2.08108243785077
O          -3.35322702723672   -0.20407640637071   -1.75785395210208
O          -1.79516758036521    0.21140698971015    0.08915681171299
O          -1.89882546313019    1.74667611682419   -1.75086756837025
H          -0.90935437438921    1.94480408904375   -1.55658245602685
H          -1.41855356430042   -0.66920107855165    0.34358290512373
O          -0.72202693954260   -2.09154165934542    0.75951504859029
H          -1.39113721330585   -2.77742856676960    0.73496247574738
O           2.19834887636723   -0.09967965769374   -0.39059988210212
H           3.02408564590965    0.38476403227988   -0.34848702320227
O           0.51650453853216    2.05388039396037   -1.08518452821115
H           0.95522188619089    1.19480530191763   -1.18727694838877
H           0.40940160627029    2.17445580137044   -0.10452162266118
O           0.78707034897014   -2.29680626430111   -1.31013924988984
H           1.50878248542643   -1.67548335665076   -1.12850407146406
H          -0.11295868159800   -2.25685643162669   -0.03552985896146
H           0.16087525144747   -1.77098084261198   -1.84488820347195
O           1.24565980753784   -0.72585434384281    2.10467776876790
H           1.88302878299697   -0.21045166276917    0.52819000787143
H           0.45397486912176   -1.18285160497059    1.77033306073205
H           1.76755287997349   -1.38959221757817    2.55977105426803
N           0.03920023403914    2.03512999262746    1.55644921853932
H           0.58066172679687    1.33219754475827    2.04667102689272
H          -0.88646524384477    1.64691481123078    1.40656481261972
H          -0.04883137331406    2.84442575472360    2.15684988442399
