    26
        -50.44585800  Gyration_radius:  2.49349368724 Dipole_moment: 5.769
 S          -0.23550410305397    1.63514704652333    1.83861664015621
O          -0.91385667938246    2.01305955123622    0.62394555266804
O          -1.02670952978249    1.55803440399973    3.01183848951569
O           0.44183285208301    0.24146951681657    1.57759238513892
O           1.00408103015955    2.51789679103936    2.03130461177958
H           1.38956398372792    2.58485144170276    1.10858391589282
H          -0.29677146557653   -0.45142203236816    1.46030195340068
O          -1.51240758321114   -1.32923347577844    1.16583917470580
H          -2.13211593157682   -1.17332258175082    1.88208477698468
O          -0.09233122649164    0.31716979259441   -2.38586375455725
H           0.15969634068072    0.11716539051949   -3.28740715476424
O           1.55722274340100    2.38080310962427   -0.47783932940987
H           0.60436198780618    2.32751956827091   -0.64603013689319
H           1.93299804909385    1.53272631989838   -0.74855380692696
O           1.81105956471780   -0.52669036903497   -0.68916124278892
H           1.52420605125382   -1.46952735347760   -0.73638001048726
H           0.64054700202311    0.00624253092507   -1.80923554989378
H           1.54436514081579   -0.25878451020329    0.20260211006353
O          -2.27452577812538    0.16664849741428   -0.77672907053583
H          -1.62408623082317    0.11929830975584   -1.50180020331953
H          -1.88274899571450   -0.83771354517690    0.35950693189982
H          -2.03681548398587    0.99114901057653   -0.31759375921685
N           0.53018007382078   -2.91187937681925   -0.53101930681834
H          -0.19805580975910   -2.60166034905142    0.10526334651778
H           1.00979898112846   -3.68875335408057   -0.09362285391416
H           0.07601501677133   -3.26019431316119   -1.36624370920593
