    26
        -50.44530615  Gyration_radius:  2.4253000899 Dipole_moment: 3.788
 S           1.82592556421436   -0.52318389698360   -0.49526521725870
O           1.69190354990621    0.29019540571426   -1.67165598622925
O           2.79058335664381   -0.12796329452149    0.47129734464816
O           0.42756662894614   -0.63572219598014    0.17327188205114
O           2.05371898221878   -1.99175611710127   -0.93109199851235
H           1.28559337809161   -2.14195713908413   -1.55109026073797
H           0.34922279133451   -0.35100014883530    1.12983231535949
O          -2.03192717871525   -0.27073024199400   -1.13411299594891
H          -2.81527237298361   -0.01189946516748   -1.62340673891552
O          -0.18526253709101   -0.13088687264432    2.62368318763458
H           0.11964351308797   -0.82938202759871    3.20634493023183
O          -0.02697319118780   -1.69523777477950   -2.44543818362351
H          -0.77642943583126   -1.36309183011343   -1.91319585324681
H           0.42838200333000   -0.90082895834224   -2.75176083740277
O          -0.47568181587457    1.82706922650779   -1.15136994525727
H          -1.45615273122328    0.54737020944466   -1.08678089591789
H          -0.14625477643590    2.11286767774367   -0.27096715107595
H           0.30984966390056    1.42580723813196   -1.55567598404980
O          -2.36918178133482   -1.04359474673603    1.44253662569483
H          -1.09891495303658   -0.37642494092548    2.32973686023682
H          -2.24666375939340   -0.70435269957591    0.52916023391960
H          -2.33359234031081   -1.99857109225574    1.36482350477080
N           0.99060389701119    2.23597773036484    1.11668935296056
H           1.33316593807061    3.15821837135351    1.35690092656926
H           1.79437481363280    1.65765515133256    0.89118070520994
H           0.56177276312193    1.84142243200330    1.94635421892437
