    26
        -50.44530608  Gyration_radius:  2.42519012314 Dipole_moment: 3.781
 S          -0.90649511777244   -1.70748292004371   -0.33937681821227
O          -1.41875802774847   -1.65081580660594    1.00146516122609
O          -1.84352214351306   -1.62793439966314   -1.40553521763782
O           0.16118302934809   -0.58868632568259   -0.49362059057986
O          -0.02041060996414   -2.97008690350691   -0.47873522920358
H           0.61108748641061   -2.86123542106164    0.28700949721795
H           0.02949697212475    0.07561289264515   -1.23086239652752
O           1.58808813367359    0.59685367323180    1.61550635519851
H           1.93901674486387    1.03040866135613    2.39581259261533
O           0.27242958931758    1.23374098020662   -2.31094918340167
H           0.57156460612907    0.86993019965801   -3.14669728991208
O           1.18882776508674   -2.16069614107664    1.66442113060116
H           0.29663382802254   -2.09191360053734    2.02696991263519
H           1.48214859022199   -1.23566956462178    1.54730976941729
O           2.42675731694553    1.50057331351717   -0.79916858092699
H           1.07981353689612    1.52256526445756   -1.81473745875044
H           2.08054823024724    1.21975944766800    0.07583077004342
H           3.08256166241267    0.84205575392682   -1.03499186997620
O          -1.00063776238049    0.91883068459158    1.74550094143730
H           0.60109082398563    0.76680086183310    1.62876484956377
H          -1.41829223975516    1.29185860966120    0.93822542980429
H          -1.26785516057262   -0.01346891219368    1.71543984833076
N          -2.27211318775211    1.28455045958764   -0.64431384303243
H          -1.67353171452008    1.68669729312869   -1.35702329814167
H          -3.16700428055103    1.75614764718267   -0.69260188504412
H          -2.42262809120646    0.31160424243007   -0.89364260685174
