    26
        -50.45488628  Gyration_radius:  2.44215693344 Dipole_moment: 6.274
 S           0.06880002542311    0.59162940626963   -2.18679597205276
O           1.29082024019016    0.04227483353039   -1.55669407924889
O           0.20148022309920    0.89228120253621   -3.56740659086894
O          -1.06563143032313   -0.31385140685155   -1.88159011833003
O          -0.25221293503273    1.92820395210980   -1.42321264108697
H           0.06629965496533    1.89831771150547   -0.49293409266786
H          -0.55055489011852   -1.62378687994912   -1.27080689943017
O           0.36497485386621   -1.74488165289644    1.75903319046716
H           0.27367278564047   -2.27772487212094    2.54947157657677
O           0.63550162504733    2.09668104284386    1.08441441002051
H           1.05647348753953    2.95456478405470    1.15349229685359
O          -2.71575499244788    0.75966100352729   -0.13397782718900
H          -2.18846219121496    0.33448231627954   -0.84481472003986
H          -2.73205073383135    1.69288926863886   -0.35548181867142
O           2.31823302893396    0.12569460892850    0.90799393891259
H           1.81930547381539   -0.60952987861658    1.29585679239902
H           2.14064299275302    0.09786324610741   -0.05327048053612
H           1.36439840313395    1.41280517212267    1.10864399935437
O          -1.21999925739409    0.27153957871691    2.02317581856956
H          -1.88680082643150    0.36386059138904    1.30540096188023
H          -0.28361460578021   -0.97911780043760    1.86961281154623
H          -0.64542155636938    1.04403151527723    1.92116150092846
N           0.28072579033948   -2.18133812647101   -0.88371254863542
H           0.25012724314067   -2.21307422360298    0.15854669533295
H           1.01285291217566   -1.46905467022207   -1.17920216614769
H           0.39619467888871   -3.09442071266899   -1.30690401793683
