    26
        -50.45488637  Gyration_radius:  2.44212026101 Dipole_moment: 6.273
 S           0.23700521895792    1.61375475708097    1.57338085803745
O          -0.87430971516424    0.64454207601627    1.70556623361296
O           0.32442679913306    2.55820825315008    2.62900104484245
O           1.49377554214017    0.86009000330505    1.34387843839301
O          -0.02461607512368    2.39753941215323    0.23547945358970
H          -0.51614728275509    1.84748893833801   -0.41521675687533
H           1.26850279056551   -0.63625001410856    1.59289491796544
O          -0.20579226958187   -2.43242993189653   -0.55955764813835
H          -0.13435410587454   -3.27528394336353   -1.00847438581521
O          -1.44883837141064    1.11973822525878   -1.62048146829435
H          -2.10955997362215    1.74594435830630   -1.91932913169554
O           2.33180349624672    1.11256853877159   -1.13874868036015
H           2.12045813751961    2.01749487380401   -1.37680084834948
H           2.12119571734447    1.04089545973433   -0.18242833950953
O           0.61342046821244   -0.62810755117666   -2.20914536957232
H          -0.12717666398324   -0.00800977379075   -2.27509943076513
H           1.36286586725882   -0.08268350553814   -1.87853903386227
H           0.14633550359513   -1.74557560625151   -1.21029124219330
O          -2.39166788628395   -0.70516533198864   -0.03017972750290
H          -1.79448502310529   -1.45147158070118   -0.19219131572538
H          -2.00862790195786   -0.20797254891691    0.71978775917403
H          -1.92945062405728    0.42118099801534   -1.09080612217196
N           0.57648597436026   -1.43040641406706    1.79945471801564
H           0.38767238633909   -1.98808798680535    0.93821651737536
H          -0.25111151294314   -0.78633989330217    1.97363805881231
H           0.83218951419261   -2.00166183202584    2.59599150102132
