    26
        -50.46726129  Gyration_radius:  2.48437172027 Dipole_moment: 4.557
 S           0.04147870100422    0.53396692641623   -1.04708612833345
O           0.40545780697569    0.35888166091111   -2.53145012700941
O           0.98842977237891   -0.27754849009398   -0.25695420190164
O           0.16576122838192    1.93507503803758   -0.71353463658988
O          -1.32274506563175    0.04681967087784   -0.83696678156423
O          -1.49513305330794   -2.60111074191579   -1.14476299149770
H          -1.12430651344211   -2.83398582387228   -0.27764495696061
H          -1.64280643536489   -1.63636094320452   -1.08703562241181
O          -0.33428380186284   -2.05055222374254    1.31103014214119
H           0.21102519624376   -1.52133818577870    0.70006173261634
H          -1.04380311710088   -1.47300576367063    1.60551792208908
O          -1.61249865103803    0.79728003210525    1.62602669705351
H          -1.57377034409950    0.50887686750702    0.67670898979332
H          -2.07783310381052    1.63587102879423    1.61297101579928
O           1.54438777341448    3.29064330304523    1.05758979161896
H           0.97797269047720    2.93431205714005    0.33286390266915
H           2.34883602199503    3.59327532453690    0.63308358487835
O           0.38157190756040   -2.18322657769035   -2.91517660347811
H          -0.29630411892014   -2.47703332110821   -2.24458729102343
H           0.00274877798031   -2.37263896271254   -3.77624949311795
H           0.45944595397476   -0.63238943583512   -2.69010447334841
N           1.02159469523924    0.88413546889135    2.03490303977906
H           1.45614166248941    0.41659112926989    2.82324689561611
H           1.18148856442941    0.35772234334088    1.11264842560489
H          -0.02681369740483    0.90214934061962    2.11085934894544
H           1.36395712942527    1.86359026815938    1.88404181863530
