    26
        -50.46865553  Gyration_radius:  2.5687714716 Dipole_moment: 5.924
 S          -0.76141641123712   -0.29469776430288   -0.87409737933247
O          -0.26762196701827    1.03318989854101   -0.44779617378994
O          -1.44272830324355   -0.93836585602221    0.23731830902570
O          -1.80909005335941   -0.04615985221795   -1.98467563376069
O           0.32617595244399   -1.08570316591933   -1.42115203178445
O           0.64736342221420   -2.53828533786995    0.75676847643292
H          -0.27654940697194   -2.27921160507237    0.88816482305737
H           0.80454626180142   -2.21666302798084   -0.15084235458290
O           2.12685945764576   -0.91082626154812    2.17645874131962
H           2.93316627487006   -0.82572649325451    1.66487312472143
H           1.59439543240269   -1.62035446717874    1.72000227581520
O          -2.01829996355907   -0.06829289233814    2.64232729422801
H          -2.16963947096536   -0.85779098257531    3.16526688791893
H          -1.97904605560510   -0.36839810704623    1.70375600607406
O           0.67838087467444    2.37005609335353   -2.53566609009829
H           0.39025162372992    1.91302477883463   -1.71660182074976
H           0.06605660295505    3.09650306909066   -2.66472429801345
O          -0.00495848986605    0.08814643525637   -3.80387911624107
H           0.37215833744480    0.96542094696549   -3.58698601310950
H           0.45117836752124   -0.53607087494509   -3.21731330042022
H          -1.25951274844746    0.02552085244528   -2.81993817509245
N           0.33355801161575    1.03952822672328    2.07572007275516
H           0.11624285031317    1.11103395820839    1.03069994418478
H           0.59352894655943    1.94248018318761    2.45693735079266
H          -0.54982714617234    0.67669563536314    2.51262559854542
H           1.10482760026537    0.32494664030621    2.19275348210591
