    26
        -50.45488633  Gyration_radius:  2.44213263952 Dipole_moment: 6.274
 S          -0.22075997182275   -2.08234558879469   -0.86700582835395
O          -0.37858617585918   -1.89609768966300    0.59329532891026
O          -0.41801598918498   -3.41399983041207   -1.31627058127220
O          -1.07271775396989   -1.08741822243189   -1.56297128392484
O           1.25813966284459   -1.66640307188877   -1.20230175885402
H           1.59487792537113   -0.98980139249693   -0.57258231492758
H          -2.01745341122903   -0.40591813121923   -0.56470120928100
O          -0.95655576816362    1.85775739036067    1.38038741772841
H          -1.17983331958248    2.72859958494888    1.71029962867659
O           2.39963133746943    0.07547750449020    0.46130652891666
H           3.26517198700262   -0.28398772899142    0.66025276813987
O           0.37211191613953    0.80898043622366   -2.67915513580591
H           1.15837490858981    0.36105801185842   -2.99752241557068
H          -0.22000885240980    0.09476762096231   -2.35769294138302
O           0.84380963214377    2.17966911176021   -0.43698339969949
H          -0.27408121392532    2.00848335266426    0.65185330399083
H           1.58509254009579    1.63185015796251   -0.14084605656591
H           0.60408489948845    1.81419930146435   -1.31866947383650
O           0.68268534373673   -0.22503837112863    2.38729620923734
H           1.84947164758115   -0.01599906624745    1.29107948348025
H           0.08557407818503    0.52686364054713    2.25313707010185
H           0.29649437093378   -0.97175196292465    1.88768810036898
N          -2.31052077389310   -0.26282858981979    0.45780117215200
H          -1.97245401449618    0.65800205752062    0.81290816612992
H          -1.67756817389490   -1.02629647370213    0.84111503240160
H          -3.29696484115638   -0.41782207104202    0.62828217924193
