    26
        -50.45488635  Gyration_radius:  2.4419718523 Dipole_moment: 6.277
 S          -1.46762061713590    1.66247626426223   -0.46441691854971
O          -0.54645342497296    1.82370680666194    0.68324448952639
O          -2.31871434221342    2.77374577490802   -0.69826256364837
O          -0.67421226890556    1.26056538480737   -1.65154314861214
O          -2.36857475917447    0.41787165817550   -0.12933034678579
H          -1.89741632295295   -0.22465775941338    0.44745316674195
H           0.82377434503061    1.41682498839771   -1.36573753971826
O          -1.31566617537599   -1.39110527934967    1.52168774661200
H          -1.99541175858903   -1.57912771591939    2.17019288368814
O           2.36638486717089   -0.72059996174032    0.38808889076612
H           3.17318221831404   -1.23629620195673    0.40132410135483
O          -1.08924264136706   -1.26227539639994   -2.27884715253059
H          -2.01921684167523   -1.40900343588811   -2.09477601880765
H          -0.94936400383371   -0.29892695551119   -2.15088309165890
O           0.58330107271414    0.13712823243427    2.41967634331475
H           1.34227326495985   -0.13550758261012    1.88167473102008
H           0.16735793840152    0.88405635775821    1.94482480825291
H          -0.60090033606497   -0.87364388418212    1.99160208294680
O           0.47723733157045   -2.29766015936550   -0.38084681966587
H           1.64712755458660   -1.34715871044777    0.05727600568701
H          -0.18079973380914   -2.24869407398810    0.32758749598221
H          -0.00382955646606   -1.99743615849474   -1.18514495810816
N           1.59787897838777    1.62597480745779   -0.65195176056061
H           0.93130413889703    1.92489348278660    0.11993071132720
H           2.24350245423581    2.34913938750739   -0.94592559096484
H           2.07409862826739    0.74571013011124   -0.35689752761185
