    26
        -50.45812155  Gyration_radius:  2.42453389354 Dipole_moment: 3.423
 S          -0.36340938041026   -0.95271574014204    1.48700521607429
O           0.44164240250498    0.36570329146525    1.50495697823098
O          -1.36060323671652   -0.85121760393803    2.49909610956154
O          -1.00212192057303   -0.99057756248993    0.08464056506592
O           0.53578171375145   -2.07386025843460    1.54373672654895
H           1.38924149095835   -2.27066430267722    0.18429686124570
H          -1.43456461266598   -0.04833919033038   -0.15683007588586
O           1.95213328632110   -2.26426330829716   -0.63186961467666
H           2.58152722866435   -2.97918077666609   -0.52366930570991
O           0.49275142655675    1.27213050252788   -2.05988065434606
H           0.59196025039167    1.73990240865558   -2.89002385663306
O          -1.80973244790136    1.27522386326022   -0.49156792298569
H          -1.84861028182378    1.67842335884252    0.43030826488559
H          -1.00638979800839    1.58762187510453   -0.94122653888325
O           2.28970044671161    0.39111949894306   -0.22306630435271
H           2.35470036655293   -0.55109289702633   -0.47215793955608
H           1.78717112888529    0.83477950812240   -0.93324710352955
H           1.24103606134468    0.36785452395622    0.86362531512394
O           0.09590543843153   -1.31125756389925   -2.44015832479084
H           0.30200019598030    0.32435176042547   -2.29387099569691
H           0.85066097904725   -1.75330157158153   -2.01781505746604
H          -0.63056432158362   -1.43603369153560   -1.81632979644646
N          -1.88320124343388    1.92825764652890    2.04947287673283
H          -1.05922178513362    2.40908810965581    2.38820977316748
H          -1.81272745008754    0.96185760993217    2.36958482532867
H          -2.69506592779208    2.34619047955125    2.48677996895681
