    26
        -50.45488635  Gyration_radius:  2.44201314267 Dipole_moment: 6.278
 S          -2.22158646624939   -0.08566354181224   -0.43803142523617
O          -1.72723467906263   -0.62312111739768    0.84974206372597
O          -3.63003996477974   -0.14671491851986   -0.60091176193333
O          -1.65929884482750    1.27391576101095   -0.62720702994166
O          -1.56031890682911   -0.96581273729760   -1.56091156189603
H          -0.68982464585566   -1.32319339220871   -1.27441614131016
H          -1.00137940885845    1.76027840750555    0.66878076376587
O           1.85556190400034    0.70043154882270    1.52867970381226
H           2.70074237191021    1.00799629679825    1.85750036985071
O           0.75706358895992   -2.12709467152298   -0.93858760348673
H           0.67487206267290   -3.03932046064646   -1.21978571164493
O           0.19177034454153    1.30014636899539   -2.49890580965219
H          -0.54108367936829    1.37820638703584   -1.85018891227397
H          -0.12018618940581    0.67732524055584   -3.15850924473438
O           2.14234877941039    0.26728481095542   -0.99671538571245
H           1.87787704111625   -0.65661131413914   -1.11391789589553
H           1.52535402967180    0.77493169878563   -1.57125550543850
H           1.98137612022206    0.56538901433434    0.53608557026699
O           0.53625975679384   -1.80778480517320    1.62983910346414
H          -0.37994080685437   -1.49850944422267    1.48368331573170
H           0.74292978321604   -2.12887336101922    0.06109163011682
H           1.06764663948713   -1.01238818475815    1.78736074162995
N          -0.68622715972007    1.53633809934083    1.67039876716374
H          -1.02454594326606    2.19250493756729    2.36408915601937
H           0.34685265437201    1.39517631377911    1.70825115895242
H          -1.15898838129551    0.58516306322976    1.70384166465494
