    26
        -50.45488640  Gyration_radius:  2.44192815585 Dipole_moment: 6.276
 S           0.42222925120921    1.98672247390713    1.00431920655563
O           1.13425319436400    1.65527991113088   -0.25054980644356
O           0.72439902859005    3.26859290331088    1.53297171746715
O          -1.02831847096573    1.75545981077168    0.79733732596465
O           0.86651357173659    0.90586795272080    2.05657135142631
H           1.10170811390261    0.05471198133246    1.62324591592573
H          -1.32179138101604    1.52624485994231   -0.68955798018628
O          -0.68255308431117   -1.25868688450663   -2.05429431664022
H          -1.06825725446250   -1.91179123189538   -2.63884240456581
O           1.65775307275800   -1.44237679657112    1.07377360123925
H           2.47753757498678   -1.65084424828471    1.52376095983326
O          -1.85616174760875   -0.38201285018402    2.09203982318417
H          -1.63395138542861    0.46668826067812    1.65120256574729
H          -1.35439010612125   -0.38069165531021    2.90966548003579
O           1.99239979386500   -0.61511872875675   -1.36584105968319
H           1.16573913263189   -0.88647115136136   -1.79337504848353
H           1.84638658984512    0.29728119734851   -1.04541743469241
H           1.89383259452859   -1.21969719600897    0.12818724226665
O          -0.91149276223383   -2.16834136036153    0.34718305607234
H          -0.00636137123843   -2.17252017631209    0.69072779712044
H          -1.40551129238347   -1.57916658391787    0.96144686302525
H          -0.80853993429981   -1.61990799468893   -1.11994207744971
N          -0.93861559894694    1.38230406847985   -1.68206822648478
H          -1.00155122385596    0.37828872239523   -1.95899121311519
H           0.06900032087518    1.59894912388857   -1.42290314459435
H          -1.33425663642275    2.01123559225278   -2.37065019352351
