    26
        -50.45488632  Gyration_radius:  2.44201810128 Dipole_moment: 6.278
 S           0.46724244494208   -0.04595048643086    2.21669664912067
O           1.44269137921508    0.57938874916626    1.29522641640444
O           0.82980251724239    0.01199253716681    3.58753009432320
O          -0.87565604044409    0.51629950781388    1.93227822493770
O           0.37872972461167   -1.55891742569348    1.79741311704253
H           0.56764829852953   -1.68025058904881    0.83973156402804
H          -0.75679895516540    1.72571803656229    0.99845047683635
O           0.97378245311365   -2.11691191308724   -0.74039441095767
H           1.57226652408963   -2.86444697657722   -0.70898859688645
O          -0.26829829599294    1.33028713832536   -2.10454092706287
H          -0.57812289712387    1.63827036208274   -2.95673629554994
O          -2.42548856265716   -1.24435914832592    0.73699964689905
H          -2.19351287113211   -2.08452573781070    1.13771938284783
H          -1.93172041685735   -0.56829277326295    1.24995339190861
O           2.15681127901590    0.14076700051028   -1.24106162545495
H           1.51403352850779   -1.32384568383057   -1.02103111970710
H           1.45703822541082    0.65036608356663   -1.67748520591790
H           2.09374444059976    0.35225970003348   -0.28831268594169
O          -1.35681479997846   -0.97075940809753   -1.69443838977790
H          -1.89201216136080   -1.02935647231150   -0.87068727112824
H          -0.72784875952820    0.44461206282744   -1.95067476399581
H          -0.60924160222936   -1.56635311249142   -1.54053891521967
N          -0.13276525952050    2.33750531798040    0.37474241110237
H          -0.29457242034765    2.12094330403129   -0.63298249475154
H           0.77647801123956    1.87826430154301    0.67765668801163
H          -0.18741576417821    3.32729564536220    0.58347462888961
