    26
        -50.45488637  Gyration_radius:  2.44192716618 Dipole_moment: 6.277
 S           1.38929719339555    0.90325897649913   -1.54516589568839
O           1.91938719373512    0.60706025813005   -0.19505964149052
O           2.34602212027807    1.42815056961097   -2.45246933789620
O           0.68932145376798   -0.30287840221905   -2.05085525158345
O           0.26187859296151    1.98104403379250   -1.34448261873893
H          -0.16185762340776    1.90093953139476   -0.46040784868546
H           0.98498908527197   -1.50479725418051   -1.14721242930588
O          -0.47516444935271   -1.82818114773515    1.64364874484390
H          -0.92999172982010   -2.47871128924477    2.17938374933157
O          -0.93470763339002    2.00812151446023    1.03749989158854
H          -0.95159733422247    2.92625298935133    1.31082893237818
O          -1.92137384607088    0.03534398210421   -2.06798955045316
H          -0.95812235097433   -0.12918791981804   -2.16350996531616
H          -2.04585906810055    0.95461180879310   -2.31244672589886
O          -2.28595405546948   -0.35617801071421    0.54766411033870
H          -2.05778387194896    0.54588499706939    0.81510098823562
H          -2.25614437088677   -0.33661002238217   -0.43580735808402
H          -1.20082262877090   -1.28262038076361    1.20184503827462
O           0.86753710628380    0.59235397098109    2.26033125558586
H           0.48037786564410   -0.29629549306613    2.24527887982965
H           1.42347309903050    0.66065803792147    1.45864050099970
H          -0.27263381216067    1.54230336375132    1.62411301227535
N           1.42696903071908   -1.87807556457386   -0.24272598922854
H           2.05745056044295   -2.65814237592664   -0.38488838850468
H           0.69313107333968   -2.06872031992222    0.47409959503093
H           1.91217840970255   -0.96558587331034    0.00458628216131
