    26
        -50.45488635  Gyration_radius:  2.44201332601 Dipole_moment: 6.278
 S          -0.40004080837531   -2.02240983911994    0.94050720316046
O          -1.32392125094815   -1.52576694225676   -0.10423312487598
O          -0.71176667735238   -3.31453298991135    1.43770305206164
O           0.98973093321779   -1.89793167111678    0.43721697080436
O          -0.50037009908627   -1.00181126280250    2.13269758875822
H          -0.73308787893197   -0.09954761344642    1.81762764494898
H           0.98397530504961   -1.56824043413527   -1.06003020882625
O           0.35626766912497    1.36718647989202   -2.06745796060647
H           0.67381066499819    2.03266738334714   -2.67849604187341
O          -1.23705856679020    1.48140541823316    1.50191771827252
H          -1.91734356534456    1.71977882625695    2.13306564568425
O           2.28565557356575    0.04224628090572    1.65646336436095
H           1.89024732522265   -0.74362624264310    1.22050698010700
H           1.97031707626051    0.01396216722261    2.56202122170207
O           1.18043435604777    2.04498139942704    0.27957348601338
H           1.73051931331554    1.36551613330042    0.73144133392485
H           0.71357705116048    1.63505608181092   -1.16196386859650
H           0.37376011495157    2.09717712246889    0.81233955614981
O          -2.16336418326885    0.89701109375732   -0.85360294836776
H          -1.42276725272204    1.13247698512620   -1.43315570167200
H          -2.04657865728448   -0.04860631598322   -0.63323794396817
H          -1.68947080813988    1.36118481014748    0.61856107610320
N           0.41609940923922   -1.30808753185680   -1.93309545122107
H           0.52041468545955   -0.29306318944260   -2.15118070535190
H          -0.53047043696295   -1.45979909397276   -1.47427838232569
H           0.59143071759340   -1.90722704520955   -2.73091048436561
