    26
        -50.46865571  Gyration_radius:  2.56858541972 Dipole_moment: 5.916
 S          -0.00318506195811   -0.42745302662908    1.11459928168334
O          -0.79749366467508   -0.83742106092848   -0.06433253880973
O           1.41265359930004   -0.58278383851513    0.82313290307673
O          -0.36456129472207    0.91785076824896    1.52364822271523
O          -0.35687473960071   -1.41060430349881    2.25536993276197
O          -3.37810387177657   -0.89496676281019    0.55103503995969
H          -3.61954112334428   -1.82263765554089    0.52623120743023
H          -2.44725597064611   -0.84754310834572    0.24450941910461
O           0.91943301913585    2.24512983569948   -2.04830176070734
H           0.16466745853880    2.83356614316640   -1.99215306035666
H           1.33011953521596    2.24951045908360   -1.13910163405186
O           2.64301980772990   -1.57015351975825   -1.27073092000488
H           3.53354214003602   -1.21669416388777   -1.22854342545078
H           2.22547079625252   -1.35654760613935   -0.40327369888997
O           1.75035395318653    2.04894517129895    0.42631315963429
H           2.10595161743625    1.15557241900945    0.54233257068091
H           0.90923385878679    1.98052828440937    0.91611855127275
O          -2.42537783996327   -0.05134761957061    2.93033566177213
H          -3.01474083554799   -0.28328469942784    2.18339274906521
H          -1.18115864348177   -1.01421823243300    2.66567180532139
H          -1.88629908588180    0.68844908260461    2.60798323663114
N           0.49043957661336   -0.36219358135408   -2.26545728135825
H           0.04333754821386   -0.69959766402822   -3.11075735115608
H           0.64456462300090    0.68424036589995   -2.29136903276259
H          -0.10389647807850   -0.57890164927921   -1.40277441964677
H           1.40570107623833   -0.84744403726522   -2.09387862791825
