    26
        -50.45807533  Gyration_radius:  2.4212127531 Dipole_moment: 7.660
 S           0.63950199685503    1.27969856299782    1.67474250314967
O           1.65412913347890    1.33468020362938    0.63211829638679
O           0.91188618349713    2.02370050039164    2.85464368124934
O          -0.70810846668302    1.81770114904641    1.01684582427791
O           0.28913310516327   -0.14325558827071    1.96742389410606
H           0.75162142611035   -1.43693098866999    1.11040669560340
H          -0.42627620323075    2.25423799489955    0.16739566641445
O           0.90040349316308   -2.24146630852705    0.54838096656623
H           1.26988038967495   -2.90768418696636    1.12872150846904
O          -0.11966539423963    0.10693718816392   -2.41982313747327
H          -0.02320156857987    0.01248187108186   -3.36826817977119
O           0.26170943415951    2.59331074145752   -1.23315659467117
H           0.02843653256241    1.82517284207903   -1.78481716367249
H           1.09365629692991    2.35227176680622   -0.78965408279626
O           2.08497874137543   -0.49945449228714   -1.21515558548014
H           2.08474506861038    0.20674312926871   -0.53125946611803
H           1.87298339926124   -1.30766737520159   -0.72271329583198
H           0.77411397525828   -0.13319040519372   -2.02051590852822
O          -1.37216060653007   -1.75921261615357   -0.91652849579371
H          -1.03762577414729   -1.08300348368926   -1.54364460859988
H          -0.57355279959962   -2.14622352729245   -0.51391108582111
H          -1.95345454466027   -0.99788551587147    0.29445218352733
N          -2.11510144199783   -0.43759276314902    1.20197966813421
H          -2.39820148094017    0.51838991845871    0.98850933988330
H          -1.11841093416194   -0.33739563153197    1.64794149958361
H          -2.77141995132533   -0.89436300547784    1.82588589720835
