    26
        -50.45488637  Gyration_radius:  2.44200336774 Dipole_moment: 6.278
 S          -0.80250785833274    0.75295773331966    1.98074609223936
O           0.49887350634087    0.04757849535995    1.95987761895624
O          -1.19889194428061    1.22172705627349    3.26024249301838
O          -0.78142734280551    1.80998022295953    0.94025385610801
O          -1.87190137583818   -0.28964790367204    1.48846715374304
H          -1.47743867411963   -0.94980315089967    0.87516404422436
H           0.64137421700479    1.99436341399750    0.40098590310898
O           1.86625681087399   -0.06555878986457   -1.66833016706407
H           2.35407738846304   -0.09961218944998   -2.49168805012468
O          -0.97770284022779   -2.23934034680540   -0.09445143684199
H          -1.34463816585859   -3.05070333630345    0.25912823359255
O          -2.31472931381173    1.18012529329095   -1.10488958307088
H          -3.06653802449516    0.72906421526560   -0.71553043412010
H          -1.79092613826930    1.51331116419650   -0.34422825128015
O           1.53739589768957   -1.90644991193351    0.46349527166079
H           0.00230219310791   -2.25346370803258    0.10272642896247
H           1.84656665979685   -1.36801450828643   -0.28104577918378
H           1.26947115940343   -1.27664622407354    1.16204823975447
O          -0.60520429223324   -0.52946946944584   -2.23763062853315
H          -0.84190779913090   -1.28696982855005   -1.68314801907132
H          -1.22833279065589    0.18100685565910   -1.96304097826588
H           0.89996635358926   -0.22013503015195   -1.91676653105051
N           1.65857258431557    1.65168692667711    0.37801081311135
H           1.53348793996286    0.94341099620976    1.16038069585106
H           2.34024768148231    2.37405078994218    0.57733813776593
H           1.85355417802865    1.13655120431699   -0.50811513348882
