    26
        -50.47356250  Gyration_radius:  2.43494250514 Dipole_moment: 2.294
 S           2.17503313219662   -0.03990697655882   -0.15321256693702
O           1.22772868714116   -0.50733109191023   -1.16207663892042
O           2.51325857460851   -1.08617125148081    0.79072894779000
O           3.51795844215086    0.29111560750072   -0.92994884431340
O           1.74852955109405    1.19379496554516    0.46388088944270
H           0.45978450338659    2.06555669724580    0.18097084389777
H           3.89625006601337   -0.57739373065512   -1.01533782229871
O           0.27957382076898   -1.07771789581988    2.08957136444750
H           0.48611887133983   -1.17511702304068    3.02108245289408
O          -0.37929308499684    2.57610465639633    0.02871349994481
H          -0.17320373106334    3.48716110213955    0.24167742655446
O          -0.39314090655183   -2.41165928242967   -0.27334173847985
H           0.29621041574201   -1.85248650172118   -0.69242246369602
H          -0.24388338728787   -2.29721034796255    0.67616020854942
O          -0.74397962092961    0.96679258611528   -2.16910544135778
H           0.06112219040995    0.44566232776490   -1.96184140095460
H           1.15219336345907   -1.03746536960254    1.62391722824877
H          -0.69541939519253    1.73327373947436   -1.57368298966009
O          -1.73707408811704    0.70126825845310    1.49311365385657
H          -1.00486082287661    0.13300621477549    1.79744991485936
H          -1.31385023221170    1.48149683541142    1.08923286841275
H          -2.23881703962043   -0.09128272833392    0.20211089254531
N          -2.26501953815487   -0.61315320651419   -0.72401596124194
H          -1.78136729606267    0.01769024933674   -1.43568601716451
H          -3.20526765674397   -0.86303342791236   -1.00462175426600
H          -1.63858481857587   -1.46299440610587   -0.60331652214475
