    26
        -50.47356249  Gyration_radius:  2.43491719592 Dipole_moment: 2.294
 S          -1.40446368946753   -1.63781357363135   -0.31815717260122
O          -1.67181693485171   -0.21668657509451   -0.52407706460863
O          -1.68770685347559   -2.04532648942428    1.04335731537453
O          -2.44433795420723   -2.41781186358673   -1.22737050173001
O          -0.09221338293418   -2.01809082918928   -0.78510342090811
H           1.02379352486804   -1.13478096393868   -1.47427866860300
H          -3.22093048297132   -2.39013318874189   -0.67890003264494
O           1.73526710063990   -0.55745249445955   -1.85946535953758
H           2.25984015198099   -1.12889515474595   -2.42170382089397
O           0.37005532458830   -0.93536262817225    2.14337384980294
H           0.70783223216280   -1.54261603579215    2.80439542872327
O          -1.31568144960497    1.24222803740819    1.66393641447288
H          -0.81043488218203    0.60142832300682    2.18456459003206
H          -1.63521342564745    0.72481748894566    0.89337407192425
O          -0.20187417065530    1.38181356493919   -2.05992043742912
H          -0.86853264060456    0.80675508734375   -1.62677566680162
H          -0.38527035677060   -1.40466713214163    1.70851151129650
H           0.54441536536196    0.78810637160515   -2.24676303875174
O           2.27160724152672    0.38888169084177    0.65420187606369
H           1.67494961283076   -0.16222324850867    1.19457579990558
H           2.24707759882935    0.00289194785586   -0.24105878501370
H           1.39354015215080    1.70670358967982    0.45528880421550
N           0.59190620620079    2.37119070635899    0.23987336241393
H          -0.20695958067802    2.08998800860232    0.88167911280325
H           0.27393221952558    2.14320561642648   -0.75273504240755
H           0.85121906336058    3.34384976421468    0.34917685473610
