    26
        -50.45007679  Gyration_radius:  2.50584963602 Dipole_moment: 4.972
 S          -0.91579503998005    0.59197845146163    2.19568294063084
O           0.52673171777384    0.58145730185079    2.30480201568783
O          -1.63281074037515    1.31483621262899    3.17642328683979
O          -1.25600887529572    1.09845277449021    0.75905374138065
O          -1.44060958642516   -0.85849606129739    2.15097611242209
H          -0.94031006991903   -1.38837063758403    1.46385093950298
H          -0.45068434052708    1.64945112837702    0.45947690000791
O          -0.07927133467227   -2.26125455496485    0.44948640553403
H          -0.08933402156289   -3.17820576356654    0.72991553969565
O           2.05988151788012    0.38971372660768   -1.28116430806507
H           2.65037574536486    0.54004625800637   -2.01993321342850
O           0.91684661652531    2.27770311962741    0.23914133116595
H           1.23070604235962    2.02592784276441    1.11867237656220
H           1.37756868766263    1.67792642919602   -0.39039246852043
O           2.14886723739349   -1.11785760136746    1.02111090798370
H           2.34187715320680   -0.59825189324479    0.22094557258213
H           1.72764078892182   -0.49538462687350    1.64414063553874
H           0.84711166481174   -1.90796492995166    0.65253384468223
O           0.03966356249475   -1.02491083018829   -2.07949750378705
H          -0.12375099616098   -1.59419395242485   -1.31408960573542
H          -0.76121423076325   -0.45162487177501   -2.15491791524192
H           1.28834701054795   -0.14514784735389   -1.64060485648367
N          -2.16195401486312    0.55241090213489   -2.00134934065460
H          -2.13740169272385    1.42026601626102   -2.52169824071424
H          -2.10630807816741    0.78475087732145   -1.01384305557340
H          -3.06016474350659    0.11674252986805   -2.16872205201680
