    26
        -50.47356249  Gyration_radius:  2.43487030537 Dipole_moment: 2.293
 S           1.77376978001036    0.71296071852740    1.04911454545490
O           0.51786353222760    1.43925880958102    0.87937645907311
O           2.68545286686773    0.95343605196193   -0.05131915763595
O           2.47156763659332    1.33361256802380    2.33140653268799
O           1.55918941411021   -0.68475637537691    1.34061191720865
H           0.20190410974890   -1.47796591131164    1.51164667576111
H           2.86750067370022    2.11537569460563    1.96163903983028
O          -0.65762866601085   -1.97411652812604    1.56556116970732
H          -0.49758997200646   -2.71072835357383    2.15687746545508
O           1.45126371142592   -0.48557170399395   -1.80701123925066
H           2.11540389211603   -0.95513797245290   -2.31512398235581
O          -0.14597299945412    1.80421703490596   -1.66400135066369
H           0.14936843583712    1.85568975479376   -0.72929214884875
H           0.45006683244163    1.15464207283600   -2.06367641650715
O          -0.80681884599243   -1.92837516966238   -1.16908684450596
H          -1.78487279233574   -0.66762279214897   -1.19546413874504
H           0.04737433520733   -1.51658169910566   -1.39805379153808
H          -0.75989229518011   -2.11708043295881   -0.21347959413919
O          -1.87084724653735    0.49205789565414    1.56588047987712
H          -1.62999593401734   -0.42734871142271    1.76837514256213
H          -1.01055728537759    0.95132115493535    1.45762614387839
H           1.94874767089619    0.01863090122830   -1.11551533132191
N          -2.20945421837814    0.29328582469850   -1.03105612155936
H          -1.50071508226771    0.99673227915260   -1.39449609517466
H          -2.24810417795534    0.42538137754960    0.02694882701508
H          -3.11702335567286    0.39868352162609   -1.46748819630201
