    26
        -50.47356264  Gyration_radius:  2.43503579877 Dipole_moment: 2.298
 S           2.06905087184134    0.66873359291264   -0.17609902276144
O           0.88001118725332    1.51719949488902   -0.19179460430633
O           2.41114125129340    0.20111858214499   -1.50439232773016
O           3.26944627782807    1.60175158465926    0.27631394941896
O           1.97656057076188   -0.38043924923868    0.81133821765996
H           0.81298731665443   -0.69426338422152    1.83520424727450
H           3.47273095360622    2.04461474331351   -0.54050467929759
O           0.05288122611910   -0.91050025692762    2.43808544853560
H           0.43950875335823   -1.33892928714262    3.20283147293324
O           0.50543107767243   -1.52783518975887   -1.73748463535845
H           0.87162281328311   -2.30707887700074   -2.15993897336700
O          -0.81986976218928    0.90185706285447   -2.13449418905555
H          -0.14489915288858    1.27816710431402   -1.52919818106123
H          -0.47205294236936    0.02724179608255   -2.36020212494779
O          -0.98855537919382    1.52346244299417    1.70121705200984
H           1.26508873417694   -0.90410101039719   -1.61981292199052
H          -0.70230121955491    0.74997079271541    2.21519835740734
H          -0.25270793365642    1.68417363173243    1.07243326599569
O          -1.27677895905017   -2.00347208036725    0.30769187924579
H          -2.14164867395052   -0.68886015149838    0.04239590046808
H          -0.60039224830252   -1.93549610674552   -0.39201470174986
H          -0.82056679593788   -1.77125614430191    1.13776432975303
N          -2.43145957005574    0.31902827865913   -0.13329111765661
H          -1.93779077638014    0.61831411273636   -1.02540220143507
H          -2.00139744713719    0.89475179863531    0.65534995283841
H          -3.43604017319512    0.43184671893720   -0.19119440283067
