    26
        -50.47356259  Gyration_radius:  2.43495431915 Dipole_moment: 2.295
 S          -2.02856523296014    0.48981034046401    0.63413448038275
O          -1.34114821088759    1.00667711761369   -0.54654994587969
O          -1.77699683140824    1.30915852731710    1.80261707101793
O          -3.58042915756586    0.62797476780651    0.33582402171977
O          -1.77822003118850   -0.91752056755930    0.83735260681409
H          -0.91242032483919   -1.91730750264873   -0.02962718025819
H          -3.72268778253483    1.54607361966515    0.53949029806621
O           0.65905703073723    0.54858639061827    2.20733597790143
H           0.77625885172287    0.44413857458656    3.15349087109030
O          -0.32429239497567   -2.52261170721689   -0.55466492745357
H          -0.68956998586123   -3.40154044567564   -0.44540125049831
O           0.91383651355504    2.28207664680695    0.02851701943539
H           1.03383513648820    1.96318120709878    0.93448780983563
H           0.00838404671470    1.98748867999593   -0.21016684325936
O          -0.22756354813997   -0.51185886750135   -2.42512195121930
H          -0.29460321064655   -1.37995341136580   -1.99343884668858
H          -0.76516253731723    0.08343910810479   -1.86008066022318
H          -0.29138887431221    0.79410143210804    2.07994387881204
O           1.85665352179678   -1.37219139617206    0.63824622331952
H           1.42780449470504   -0.77021023384190    1.27501531034723
H           1.14094169361941   -1.92988066455020    0.28084803130060
H           2.13630838612739   -0.39026967324909   -0.58831950043141
N           2.01869305513583    0.33340383326113   -1.35845947545947
H           1.19447034593075    0.00631530442432   -1.95181733967238
H           2.86144918600660    0.46248146868887   -1.90469148411348
H           1.70535586011673    1.22843743123028   -0.87896417484381
