    26
        -50.47356250  Gyration_radius:  2.43490078067 Dipole_moment: 2.295
 S           0.72843979336084   -1.19163089768615   -1.67505031857902
O           1.54112090172565   -0.39521829993857   -0.75917489687462
O           0.27445445277319   -0.40974386046520   -2.80756214076741
O           1.69538910074029   -2.29758737463223   -2.27376782350127
O          -0.32545676761495   -1.90218170768589   -0.99025260097573
H          -0.67265535612377   -1.93651959501819    0.55207466931211
H           2.13810727022373   -1.80212965186034   -2.95437144600002
O          -0.91133318660755   -1.90889647097978    1.51655563334063
H          -1.32969912209355   -2.74961984197978    1.70633406098508
O          -1.50799343527867    0.97085956903173   -1.54547523018067
H          -2.27581415783224    1.04206328190200   -2.11573523424626
O           0.88120968566395    2.17493569420558   -0.73434334886834
H           1.27601763341359    1.28346069609111   -0.84847807747397
H           0.01751569236035    2.10658349915279   -1.16592050220728
O           1.49237332857755   -0.63056183108190    1.88987068632741
H          -0.86273393465822    0.40076054920984   -2.03385562135453
H           0.72701827799717   -1.22154901829964    1.98657947310753
H           1.67509177029035   -0.62407666204796    0.92591016053015
O          -2.04034381601082    0.55546920001610    1.12501222088087
H          -1.79606358636633   -0.36830412882653    1.32008650733142
H          -0.75112365604482    1.34013704022432    1.64368030184250
H          -1.95095088224589    0.65251019603359    0.15844124228045
N           0.24804942821032    1.67948134729155    1.77472183940979
H           0.33110434585094    2.37508958213141    2.50581332412024
H           0.56313416557917    2.04636087335214    0.82850817294893
H           0.83514204411651    0.81030780200175    1.97039894867047
