    26
        -50.44576719  Gyration_radius:  2.58310725352 Dipole_moment: 6.291
 S          -0.43854645172597   -2.87912250174181   -0.04880261401700
O           0.02605928535463   -1.97017885808635   -1.07066732783879
O          -0.53540761007478   -4.24845389524251   -0.38071413234051
O           0.49662554165305   -2.71201670315270    1.18589352435546
O          -1.81438814408881   -2.38242108580546    0.46677116420009
H          -1.87174766104219   -1.38805164932657    0.49869527766345
H           0.89140272179513   -1.80129964246145    1.19872811217458
O           1.67709071466994   -0.37881439316340    1.20574631711800
H           2.56783785858976   -0.52311558409341    1.52980659581812
O          -2.12301146408300    0.19530348257350    0.61869893024943
H          -2.94666755777732    0.33892183379460    1.08709595304907
O          -0.85515688809007    0.49745940124803   -1.82887803729263
H          -1.45638821092511    0.59420842481159   -1.07618498830019
H          -0.69758864420345   -0.45944307940295   -1.87000330256292
O          -0.23972487046844    1.53201079539138    1.74287179155504
H           0.48125580543860    0.88561072720077    1.78289280632892
H           0.00474647894802    2.14591352115331    1.00614334575776
H          -1.41159649407149    0.70954750573344    1.12345936790701
O           1.80798022512876    0.12273636946359   -1.33808274212122
H           0.92645622683482    0.49843072218957   -1.53821688631731
H           1.75760602913355   -0.13796545406256    0.23280586849422
H           1.72368125935051   -0.79308632150572   -1.62905339253291
N           0.44634375526267    2.93966969944971   -0.47613457621612
H          -0.10588068641581    2.49157935819856   -1.20033508479026
H           1.42162304363909    2.78777392382812   -0.70401565015597
H           0.26739576692968    3.93480340283164   -0.51852030001884
