    26
        -50.45877760  Gyration_radius:  2.3978900739 Dipole_moment: 7.463
 S          -1.13836103008629   -0.48825337270192   -1.84282360316321
O           0.25293801156059   -1.21628188296003   -1.73911022627701
O          -2.14702291951271   -1.38328225656156   -2.29810822176304
O          -1.41243199823420    0.02116912091854   -0.47539628729461
O          -0.82229983028649    0.64943428117499   -2.71172853124655
H           0.33736965388678    1.08487671510268   -2.00864169219269
H          -1.54388436635428   -0.89123213276704    0.81705204831263
O          -1.49053298689154   -1.41568696209491    1.66024082329810
H          -2.34201322574743   -1.84196170809939    1.76362429836822
O           2.10126047458455   -0.23311782980999    0.65156509645924
H           2.96877746375681   -0.17626347551822    1.05349402568599
O          -0.74469439651906    2.32544268658817    0.41947402211403
H          -1.45903688398789    2.95285175623114    0.30406454186736
H          -1.08592533375550    1.45160529086354    0.06827969211805
O           0.30215483120411    0.59556046177064    2.35989528063127
H           1.44993718163515    0.08080780594679    1.34092017879034
H          -0.10564773885075    1.33505877464832    1.88385739610266
H          -0.35519248153829   -0.11865912063754    2.34843020387851
O           0.61643694796254   -2.62065295423231    0.41282345906974
H           0.28054953980429   -1.89028413940228   -1.00861752276967
H           1.32331772126371   -1.98361043595349    0.59607004127779
H          -0.12928913713871   -2.36066656551315    0.98464484403211
N           1.13032498741432    1.45373072346064   -1.31937499400722
H           1.52761444016136    0.65299261899429   -0.78979204105802
H           0.63099625288986    2.06452570188790   -0.64524689278819
H           1.85465483278558    1.95189686866422   -1.82559592944580
