    26
        -50.44375192  Gyration_radius:  2.55154713855 Dipole_moment: 2.383
 S          -1.40845594616427   -0.19275453629412   -1.57759245293632
O          -0.13284642745748    0.32934793467939   -1.97527408046647
O          -2.34505487471872   -0.53714494631156   -2.58008974037374
O          -1.13025676794086   -1.45225937634178   -0.68470650200949
O          -2.08299264244222    0.78204514217562   -0.57896366605126
H          -1.43165432393578    1.04603730731500    0.12889268524390
H          -0.16608293140303   -1.40225632870589   -0.36690849289863
O          -0.50274516963913    1.38531742030774    1.38791676493845
H          -0.97731201909966    1.97167415622076    1.97994147531617
O           1.27835393954752   -1.39160052654011    0.14877883544570
H           1.81981868445937   -1.77719666578990   -0.54172293252091
O          -2.46220470045551   -2.14444120038240    1.61501781444876
H          -2.78342971444575   -3.04721243847006    1.61439578195662
H          -2.20142551747869   -1.93650536979911    0.70342066066280
O           2.12297244406815    1.01371734553378    0.47129390205093
H           2.25547935655098    1.40496930264881   -0.42821731323298
H           1.31847559783459    1.42199456275586    0.81863340077408
H           1.63315943038559   -0.44596928243323    0.27454991146627
O          -0.21350398669380   -0.92471279236737    2.53731425798923
H          -0.38711134685678    0.51911978029171    1.88648597640955
H          -1.05299279562331   -1.39629217084181    2.37842307716090
H           0.44744539154205   -1.34484804955044    1.97340554272810
N           2.19054578023958    1.99009303754217   -2.03877325332727
H           1.34358412878029    1.45570264987642   -2.22601839752688
H           2.88849999582888    1.70718120610907   -2.71489433207613
H           1.97973442513083    2.96599383835632   -2.20530892313780
