    26
        -50.44962136  Gyration_radius:  2.52244962782 Dipole_moment: 3.562
 S           0.13875713297020    0.74588826520056    1.12021323723696
O           1.35550470366507    0.19245919124891    1.68227910091843
O           0.29429108741646    1.13566559226519   -0.27196270412987
O          -0.99375971696467   -0.17759894856781    1.26633875196336
O          -0.23228499023727    2.05083087135626    1.89827934062828
H          -0.31042113320550    1.73321962897154    2.82872859585262
H          -1.08262661335272   -1.11967158160170    0.10100320409606
O          -1.13004119676797   -1.77567224572993   -0.67551355030002
H          -1.98628680037371   -2.20097825620083   -0.59881857211795
O           1.78333772831974   -0.37200341567418   -2.66256589525116
H           2.25620248050175   -1.03054546283180   -3.17596265091837
O          -1.38483601612330    1.86507646095350   -2.00828700370170
H          -0.80811318488832    1.69049892721447   -1.20370277027373
H          -0.96214150081357    2.59101644287391   -2.47227449871633
O           1.75784423362575   -1.49111529967401   -0.31419240104078
H           1.86387599789940   -0.65778317312750   -1.70593293739263
H           1.75125247243883   -0.86265527484880    0.44025351860616
H           0.89063117242686   -1.91116653696556   -0.30685677502443
O          -0.72500226684591   -0.42784764774073   -2.79794939487671
H          -1.05813867724967    0.53639563156763   -2.56258923450512
H           0.32236052645697   -0.36726001572739   -2.80755860695319
H          -0.93236501400969   -0.98940388085786   -1.96005310191476
N          -0.24553185196578    0.47434645619584    3.99858311194238
H          -0.95970218394558   -0.10884045287687    3.57709723039607
H          -0.24334181941293    0.31685889767871    4.99893781227423
H           0.64053545043011    0.16028582690291    3.61250619320827
