    26
        -50.45564922  Gyration_radius:  2.41811660635 Dipole_moment: 3.083
 S          -0.18271083413341    1.64761000224758    0.68825249876182
O          -0.16021741190261    1.22860401114181   -0.69264948375463
O          -1.13890415216832    2.65136397658527    1.01002643590491
O          -0.35757446874847    0.40093236492047    1.57421448633635
O           1.23225851476216    2.12768016513255    1.08679058797132
H           1.88668889478401    1.43606097709673    0.78518589545060
H          -1.11778885658812   -0.23559065395256    1.12984260907520
O           0.09115375805434   -2.39972851649364   -0.68935223396710
H          -0.01315326482461   -3.35067286919012   -0.74452786358551
O           2.88632150626634    0.30266468396308    0.21509354500003
H           3.72497247133414    0.70296779862809   -0.02116187340028
O          -2.00038518599221   -1.00478712439930    0.39923557026700
H          -1.39443939782233   -1.48173075551790   -0.20239302451002
H          -2.46299985220189   -0.27697040814397   -0.11665698603808
O           1.55840913075052   -0.37894296788913   -1.89024616775804
H           1.11542524807435   -1.22120918888811   -1.69816761549629
H           0.88367276077853    0.29478486469408   -1.67468494470624
H           2.45336455586423    0.01142059418988   -0.65032881156489
O           1.44078614633196   -1.70850897885627    1.48654797480200
H           0.60504973533756   -2.22507412560078    0.14180814624754
H           2.18832773126096   -1.17519915331066    1.18169526314302
H           0.81107328466334   -1.06997170070028    1.85167919133675
N          -2.99026462707883    1.17022466943479   -0.70683795157580
H          -2.52342496662623    1.31528021255316   -1.59375662711286
H          -2.56816992826239    1.82614489204342   -0.05309268117185
H          -3.96747081192038    1.41264724030044   -0.81651593962146
