    26
        -50.44375229  Gyration_radius:  2.55171536634 Dipole_moment: 2.385
 S           0.16937982058427    0.06661239725235    2.11591772477597
O           1.40223226544088   -0.18053901016254    1.42527149755684
O           0.20816480032083    0.32015031008513    3.50699283765324
O          -0.52535970892031    1.27474572188489    1.39561458636256
O          -0.82084917182206   -1.09553493706282    1.84848841811332
H          -0.85365556372861   -1.29430129184146    0.87158725086677
H          -0.10204528170923    1.37387738804856    0.47668592414775
O          -1.08766256338441   -1.56167128632267   -0.68963651400100
H          -1.72608266468929   -2.26929671395321   -0.79541122584613
O           0.49279922643809    1.58126920638746   -0.92119973634340
H           1.28450702630079    2.10907422492948   -0.80609753142883
O          -3.20051528932230    1.53593651512688    0.83203421671434
H          -2.33087456873771    1.44982528126163    1.25471411855961
H          -3.57190073988399    2.36921821704409    1.12518400568945
O           1.25637630837438   -0.65296915652692   -1.93537089331006
H           0.54304411748199   -1.22519101265468   -1.62203362520306
H           0.80865353700116    0.70708092428831   -1.33584952451995
H           2.06617949236260   -0.94037237207300   -1.44403502130565
O          -2.14455885198187    0.66132342777935   -1.51615641917535
H          -1.52826067094239   -0.73229303976510   -1.05041381524954
H          -2.67524915443786    0.98796829404055   -0.76508160923203
H          -1.37291942031456    1.23760373598208   -1.57734921442710
N           3.29354549438554   -1.39652749163626   -0.33702952609236
H           3.44749897210871   -2.37782020789115   -0.14217652581601
H           2.76978059391435   -1.00574472692027    0.44457679749350
H           4.19777199513348   -0.94242439729754   -0.35922619597407
