    26
        -50.44375196  Gyration_radius:  2.55160193581 Dipole_moment: 2.387
 S          -0.45266444810437   -0.92275772128688    1.85835082411848
O           0.57035277101851    0.08083853593108    1.92276108047147
O          -0.95854746791058   -1.45692567618035    3.06648284310460
O          -1.63993260845865   -0.31498325550883    1.03234803433334
O           0.01854456399016   -2.09120770662472    0.95546039853249
H           0.39042789533477   -1.73152463922341    0.10263929009226
H          -1.28077294098409    0.47831867504103    0.50820800249310
O          -0.80786045502443    1.68626417892501   -0.31029410744731
H          -0.84172824025232    2.44494432400562    0.27440289991078
O           0.84632705587495   -1.24547333209720   -1.35305778752848
H           1.10476583592755   -2.00863460268249   -1.87295062086803
O          -3.14999661536319   -1.61924354600717   -0.85463193379470
H          -2.71319937564134   -1.31624645905542   -0.04243361049289
H          -4.09392537655091   -1.53965986883874   -0.71037581800540
O           1.65127003850284    1.42001868375117   -1.00666133813532
H           1.66204893443156    0.47330141393251   -1.20199137187067
H           0.16763945016410    1.60217271055318   -0.58821137735167
H           2.20405504342521    1.53238828843674   -0.19331640798236
O          -1.33567013641416   -0.24637222404841   -2.34366411184294
H          -2.05757755513709   -0.78380165294119   -1.96627955834166
H          -1.37647659525836    0.61278711268204   -1.90598169563300
H           0.01978503958818   -0.87584965060988   -1.79186588810344
N           2.97445816351257    1.50875707755154    1.33848181697064
H           2.19709030240597    0.99481541523915    1.75019855816059
H           3.09073784158038    2.36478667891026    1.86571981467898
H           3.81084887934578    0.95328723015244    1.46666206451810
