    26
        -50.44375204  Gyration_radius:  2.55151087752 Dipole_moment: 2.384
 S          -0.48743680394223    2.06283649331048    0.13039523077341
O           0.87322479340490    1.79242009591606   -0.23479091399720
O          -0.95947945588146    3.39427038961613    0.05785545045527
O          -1.39346841146339    1.15039411601602   -0.76838204484966
O          -0.76558009110237    1.51220419880572    1.55237132488131
H          -0.42782089735788    0.57652826089474    1.62565138792060
H          -0.81145188205513    0.40591434403449   -1.14279035770250
O          -0.06578816692838   -0.97616946358460    1.77214938946144
H          -0.27923784234709   -1.26617768156788    2.66087096963858
O           0.00660513081883   -0.74387177430194   -1.74382874876789
H           0.42488974875127   -0.39967966391656   -2.53453681184670
O          -3.63628864629664   -0.21623084506971    0.03384879814455
H          -4.39918793943265   -0.05963122471467   -0.52453695558637
H          -2.97434115085450    0.45533155199971   -0.19694994687861
O           1.90983165148580   -1.44229831777607   -0.16491856508554
H           1.45439324832804   -1.35924217929385    0.68367539708617
H           0.77119906142599   -1.02852571630829   -1.13530139728679
H           2.58666741688304   -0.72018577174713   -0.17780637411381
O          -1.69065071569563   -2.11440031663130    0.09725644772220
H          -0.69645938278683   -1.46561884172885    1.15983904242361
H          -2.49868703913834   -1.56738112483052    0.11367338428616
H          -1.25858710515173   -1.93927283522893   -0.74772636629283
N           3.51837676447106    0.71856893829118   -0.13428018470658
H           2.67870000563966    1.29416844384547   -0.17441304396001
H           4.10387038545916    0.97324126531486   -0.91955384292988
H           4.01670733376280    0.96280767866272    0.71222872123538
