    26
        -50.44375217  Gyration_radius:  2.55160087913 Dipole_moment: 2.379
 S          -1.51176165845733    0.55127305275037   -1.38559723451779
O          -1.42391500833217    1.39678363453280   -0.23003897520022
O          -2.35219995001423    0.94402971401275   -2.45338472742774
O          -0.05168709019614    0.36304258198149   -1.92770421476553
O          -1.89516345746545   -0.88676564376334   -0.95247437043733
H          -1.31831152773777   -1.17648292865723   -0.19208749229596
H           0.59193249185608    0.61474051880132   -1.18227344393938
O           1.61919406610844    0.97995753269980   -0.10370957774241
H           1.73435271333739    1.93058027458291   -0.14504623368882
O          -0.32694746600836   -1.77651618407246    0.91283994530559
H          -0.59587576860038   -2.67256962480786    1.12329140486298
O           1.05045019483030   -1.96269020216096   -2.88576818212054
H           1.46204316960225   -1.86528598515061   -3.74562006952486
H           0.51958398614874   -1.16419163999385   -2.73418703384496
O           1.95474474904714   -1.84667427957920   -0.32412753196405
H           1.73487520550133   -2.03118501032887   -1.25690811384866
H           2.22984254945928   -0.92249494776793   -0.28516426766747
H           0.57143823417994   -1.85246157256112    0.46635207368435
O           0.71106290574343    0.46427016374293    2.24425753765116
H           0.24550493555526   -0.36253948164028    2.05928056266775
H           1.27330945844277    0.79004045810955    0.83448681329766
H           0.00614563696686    1.13019062854373    2.44258371666446
N          -1.33649184431455    2.19485461161565    2.51146804359122
H          -2.16085054112864    1.92389127017562    3.03265016128658
H          -1.53553111340732    2.04924804331030    1.52293121587663
H          -1.19574489113780    3.18695499560603    2.65395000408115
