    26
        -50.44962132  Gyration_radius:  2.52257198292 Dipole_moment: 3.562
 S          -0.41551545605795    1.28422192553726   -0.09277867132299
O          -1.80832122984046    1.16166954400335    0.29166640993273
O           0.48524378675718    0.67357934944674    0.87161165032547
O          -0.17378258926158    0.73497614451032   -1.43317011917897
O          -0.03431715837626    2.80016624613135   -0.14455886136576
H          -0.67955711598093    3.16361158042245   -0.79592331075805
H           0.14422502891601   -0.73070663617374   -1.37125842464218
O           0.22950936088407   -2.09726463729467    2.44194345591557
H          -0.08036012047674   -2.95526040249834    2.73968820326590
O           0.33557107044191   -1.72951843556387   -1.33425050899040
H           0.66196604567037   -1.95968246466029   -2.20625296192927
O           2.96136924661679    0.19634792412844    0.78583742538366
H           2.02205691953719    0.55249712218444    0.75031369211726
H           3.28924262260780    0.42768468585908    1.65751897186492
O          -1.65979096743832   -1.43078083174032    0.78240426375923
H          -1.28235942057163   -1.70082000879841   -0.06211712016426
H          -0.52241164045346   -1.70094296741514    1.91190997535846
H          -1.81562810540320   -0.46459018558054    0.70278617342018
O           1.94446352814142   -2.09492081758348    0.60577778730065
H           1.28456434266471   -2.11035074907163    1.42135992060211
H           1.32736988409594   -1.97052751721483   -0.20910204380351
H           2.46638863669488   -1.19096175344300    0.68636461778959
N          -1.99201185204453    2.95732559548159   -1.88806683820603
H          -2.65942709219537    3.48367201960925   -2.43854554894041
H          -2.49305783671468    2.42100911093531   -1.18513788997974
H          -1.53542986821300    2.27956611878717   -2.48802023775727
