    26
        -50.46726134  Gyration_radius:  2.48444229903 Dipole_moment: 4.554
 S           0.59175130416375    0.93070451376472    0.40766507957458
O           1.46215459598556    0.36913352651621    1.41611413679099
O           1.09773027109063    2.34311452948289    0.06808833312705
O           0.64175868402564    0.12913644988920   -0.83114884331590
O          -0.79066830514499    1.02710495595552    0.87912414142125
O          -1.79585701497528   -0.90671781528076   -1.41103970251993
H          -0.92135729456280   -0.48319295644698   -1.32981980598061
H          -2.05184479975890   -1.16524519753775   -0.52145621395680
O           2.93816560740923   -1.79195200261533    1.57818143375206
H           2.45333042037175   -0.93764235333723    1.66809344302223
H           3.82975334360213   -1.55774307535512    1.31530184561630
O          -1.11127696017993   -1.43967078686136    1.60430750240798
H          -0.95419224479505   -1.47904062796205    2.54970750391323
H          -1.04279136168030   -0.47689106911666    1.37126235347240
O          -2.46029377719050    1.76263152507147   -1.07203302720221
H          -1.99996496172640    1.58230123871857   -0.22854270357094
H          -2.51472452875145    0.89247481321239   -1.50039068988119
O          -0.37818915465282    3.11372136397533   -1.89092191696714
H          -0.58780930300731    4.04420816085567   -1.78559509509832
H           0.57242875381288    2.64185865001881   -0.73540407955900
H          -1.22399692737398    2.61747912823569   -1.70708783757302
N           0.85633413637607   -2.28742910358966    0.01594946010505
H           0.86609232758826   -1.33462862857590   -0.47927521153385
H           1.74637249375798   -2.34768054162696    0.56690414998200
H           0.05167981499716   -2.19055162066416    0.68559677648612
H           0.72541488062473   -3.05548305671074   -0.63358102249762
