    26
        -50.44375216  Gyration_radius:  2.55160409823 Dipole_moment: 2.379
 S           0.78652609486766   -1.02441158250373   -1.68544034538171
O           0.40903233181119   -1.87394525552939   -0.59290903097281
O           1.13882737851759   -1.61948369205197   -2.91934116577609
O          -0.40025687927291   -0.02574997338777   -1.92061554214510
O           1.93362755676334   -0.08128864676705   -1.24136961333074
H           1.70608196267407    0.33965244040283   -0.36620970053804
H          -0.97603660387807   -0.02378570463870   -1.08293303600294
O           1.34337991597322    1.18094496528207    0.94698439439851
H           2.07536792317947    1.76252033194149    1.16016791793313
O          -1.88958188150142    0.02779084582489    0.14778853278999
H          -2.50030692416845   -0.70645483921239    0.06684331543379
O          -0.19561945938295    2.65269095117496   -2.49175721180611
H          -0.70225934949902    2.91996836262778   -3.25997622643940
H          -0.16152616995823    1.68254202036255   -2.49884773270167
O          -0.55232570810897   -0.37984363854743    2.30402757448222
H           0.25555053620672    0.10472718384015    2.08699317890781
H          -1.37813013577315   -0.13986877179244    1.01161627272417
H          -0.29606766753829   -1.33577451294577    2.31765396484925
O          -0.68174855510334    2.61506619827340    0.18324188262456
H          -1.40178484489153    1.97324486070350    0.21352652475560
H           0.57714325016009    1.77985503081841    0.68912744165609
H          -0.51975849196126    2.80518774986720   -0.76019280402589
N           0.26115251655539   -2.93628419019667    2.05464560322228
H           1.16112043507733   -3.21737623665642    2.42298582991145
H           0.37799150600202   -2.75929776147523    1.05814694378195
H          -0.37039874675043   -3.72062613544293    2.15584303161568
