    26
        -50.45564919  Gyration_radius:  2.41806741836 Dipole_moment: 3.085
 S           1.31002112404148   -1.14560405233324    0.44170390680839
O           1.20904106954072   -0.26301112800879   -0.69574326373720
O           2.59844606143619   -1.23150550534127    1.03985298026338
O           0.23912866851714   -0.74066537247028    1.47073786330968
O           0.83383675416241   -2.55580513918946    0.02218489675664
H          -0.03666905627765   -2.45527194070877   -0.45705674159689
H           0.23012444070275    0.34257973170922    1.55276449125802
O          -1.86722768751825    1.63568077773564   -0.28699864700080
H          -2.56772219135730    2.27377675088459   -0.14435969616079
O          -1.40882313233421   -2.20535689201647   -1.27169940537352
H          -1.51165459533389   -2.88143919691275   -1.94384581392321
O           0.23423866236363    1.72017446291897    1.46823878676978
H           1.17506335221072    1.86116870263944    1.14455535347628
H          -0.38176080055149    1.87365060497058    0.72420166038168
O          -0.83538398040481    0.07662847499132   -2.33199558574833
H          -1.30367136716974    0.76097103930880   -1.82705193672333
H           0.04790542423130    0.04095410677414   -1.91467037652680
H          -1.24506954396644   -1.33655107505218   -1.76119649082776
O          -2.45724397039452   -0.69992529416624    0.82222093927999
H          -1.65489103588384   -0.81679887704019    1.35151323413311
H          -2.16422939056155    0.79553080871200    0.15045905153573
H          -2.38849299193842   -1.35817524784597    0.11639901979278
N           2.74750364058156    1.67051734395861    0.68360366390197
H           3.51089212875593    2.23938050586038    1.02924769952076
H           2.76279810171487    1.69606276120693   -0.32870717632246
H           2.92384029541718    0.70303362942383    0.94564159675209
