    26
        -50.45106534  Gyration_radius:  2.3701836335 Dipole_moment: 7.554
 S          -0.62271240027529    0.45256453372023    1.82867976386469
O           0.45808102055641    0.09589444315475    2.70145185541906
O          -1.45877500637128    1.57253657594189    2.16295153563559
O           0.02260782140107    0.83412674721419    0.41443087937308
O          -1.46128728563631   -0.72077239822542    1.45378202666720
H          -0.87660754685289   -1.84004586116973    0.47549813951102
H           0.79593891383003    1.42961929451080    0.52082322162214
O          -0.51628261192373   -2.46198236142021   -0.20921239614858
H          -0.90384316666735   -3.31866068412348   -0.02592923248685
O           2.07599657989818    0.04937061031349   -1.41767011826947
H           2.74541470693857   -0.41749803404617   -1.92028528871467
O           2.14318309898256    2.35702982883704    0.00778130892513
H           1.87900912592644    3.09541018119700   -0.54373420092104
H           2.33762429052494    1.61167352583507   -0.59283737203219
O           1.83950593833843   -1.32370686258924    0.82543539149714
H           2.00030649588664   -0.43918800427196   -0.55117480062171
H           1.46571163835429   -0.82602856389965    1.57810882517561
H           1.14069158562234   -1.92674414355451    0.53200019561234
O          -0.65863845377528   -0.36824699436918   -2.01522260066301
H          -1.72789026312115    0.40464771558706   -1.14941474698708
H           0.23104628637455   -0.00701035467561   -1.84855126170412
H          -0.63999816821950   -1.22867294578236   -1.55895718164904
N          -2.44157651476429    0.69805525123467   -0.39434478046537
H          -3.40341990705160    0.68000006473595   -0.71799841139309
H          -2.19194444384279    1.59422073691417    0.02882192370879
H          -2.23214173413348    0.00340771893045    0.41556730504600
