    26
        -50.45260136  Gyration_radius:  2.49760840053 Dipole_moment: 5.350
 S          -0.45707081725368   -1.82640675974366    1.32598902351734
O          -1.57247734451666   -0.84647755338737    1.36700792547366
O          -0.86130315968301   -3.14754331937327    1.66228357220910
O           0.18124043296722   -1.72881151224372   -0.00842147786202
O           0.60688329428064   -1.33887907244108    2.35927211346456
H           0.91223117273916   -0.44419351896301    2.08960535672536
H          -1.05731104998083   -1.56005798980224   -0.96808329278823
O          -1.07214672651347    1.25099957856401   -1.93468488451931
H          -1.08506264043448    1.86841642369969   -2.66630181539076
O           1.35752789827659    1.15078549486802    1.76244122700789
H           1.46159156848613    1.61868510924852    2.59291844937973
O           3.10069555563234    1.14188792382136   -0.34185632276590
H           2.54091266009588    1.21001428237195    0.45337063991713
H           3.77592130378188    0.49095892843559   -0.14352722345348
O          -0.98935288925513    1.67005858850134    0.83781679954955
H          -1.31579406122863    0.78581938482732    1.12094529219841
H           0.48133071021842    1.45887198845922    1.37586830846650
H          -1.04984841258197    1.67882913595246   -0.13041908878265
O           1.16471927460362   -0.01522762096426   -1.83793860831066
H           1.90514573229389    0.48638915769168   -1.44026910503195
H           0.95158346415171   -0.71242545203031   -1.18906299000406
H          -0.15734961064100    0.82237796861354   -1.93939221271722
N          -2.02228304706026   -1.12165786849509   -1.11116877367154
H          -1.89279531144809   -0.20887019673370   -1.59625205963748
H          -2.21426415255705   -0.95234630880538   -0.07554091846103
H          -2.69272382435965   -1.73119679208132   -1.56459994450833
