    26
        -50.45260093  Gyration_radius:  2.49774115481 Dipole_moment: 5.350
 S          -1.00879671676668    1.88213879259707    0.86381813083921
O          -2.00172595334888    1.00606564956484    0.19032080665336
O          -1.59099890912228    2.74195525131340    1.83521693598674
O           0.06064906157150    1.01462021780691    1.41197446543142
O          -0.34476003649230    2.74789414775790   -0.25295778118496
H           0.09454781452258    2.14333494152729   -0.89158566602379
H          -0.75145911890642   -0.21897960134042    1.97333714294611
O          -0.24700602269301   -2.52321055712713    0.16279444291896
H           0.03634266868717   -3.43062256005554    0.04898913957379
O           0.72978409209559    1.15076484231203   -2.10040555921876
H           0.56821572522766    1.56113040367350   -2.95185408288244
O           3.09204610169918    0.10463714230197   -1.21059654977289
H           2.29597621941356    0.49652352600822   -1.61441276933771
H           3.61724075583362    0.83570428697157   -0.88087057920291
O           1.72757881673018   -1.01996232752459    0.83839021321185
H           0.58197190209833   -1.99183221262782    0.38886666607346
H           2.31411432414126   -0.75504737788015    0.10098417047110
H           1.25668880128911   -0.20453947006311    1.09542706753721
O          -1.10864209009661   -0.60678496524227   -1.69549672492177
H           0.06523155986471    0.39955437752641   -2.02140222179523
H          -0.82713630416845   -1.37282203577357   -1.17090409972171
H          -1.57054237837437   -0.00513709599538   -1.06853677318683
N          -1.57523314418322   -0.88289165669344    1.82277964585782
H          -1.22585316810101   -1.71922664975331    1.30917185359328
H          -2.10210531134808   -0.24409961078934    1.14890597218871
H          -2.08612868962137   -1.10916746850145    2.66804616396114
