    26
        -50.45877762  Gyration_radius:  2.3979376059 Dipole_moment: 7.462
 S           0.38459479517865    0.83729182645143    2.02033109961031
O           1.46681791297048   -0.20017862980013    1.54188354358191
O           0.99866065198951    1.96374405085527    2.63662981190908
O          -0.36784076839428    1.20613353305506    0.79462486776371
O          -0.47788937305503    0.00808941952040    2.86752009389265
H          -0.64737742237454   -1.06231690542947    1.94348440586320
H           0.27660710293420    1.87801255026658   -0.49124943875444
O           0.74622226324658   -1.74142690513760   -1.14265601390247
H           0.89139020717650   -2.48181871156883   -1.73267014465687
O           0.67056910841641    2.16532629097434   -1.35792031078208
H           0.80869633671139    3.11052488736570   -1.28778881995059
O          -2.47629228428296    0.03766163360557   -0.06877511212809
H          -1.70087615648253    0.55998024006034    0.29079553784237
H          -3.26309646180157    0.47683838625064    0.25574112814857
O           2.60197785155246    0.34307788218522   -0.72783936736937
H           2.18100973033742   -0.47679957459489   -1.02733241316730
H           2.05793689072781    1.06729715427108   -1.08868524275643
H           2.01076816787912    0.13541309955572    0.78019265578981
O          -0.80373596534352    0.00784274535375   -2.31733662975752
H          -1.55637421124535    0.05511332157926   -1.70819578248956
H          -0.31932537690468    0.84108223547845   -2.20157271273356
H           0.16211787369935   -1.09826585740262   -1.63577241024167
N          -0.85958476700705   -1.77481884656637    1.11435625332131
H          -1.04809515093055   -2.70613511830669    1.46959519687533
H          -0.05936175807780   -1.78217561966210    0.45179484891240
H          -1.67751919690554   -1.36949306835515    0.62084494518505
