    26
        -50.46048612  Gyration_radius:  2.45131797345 Dipole_moment: 2.405
 S           0.34252752358952    0.02245203115948    1.19807602715065
O          -0.63584858137171    0.90840362178280    0.56590926564244
O           0.08470046027670   -1.37028382572008    0.83985528572658
O           1.69759610275211    0.42691249369185    0.85561153937550
O           0.14968531173914    0.11494077260663    2.73493224233716
O          -2.00669193026816   -0.09388634921753   -1.40894857424322
H          -2.21048508613980   -1.00370692442107   -1.09930256671371
H          -1.60170635756890    0.35549356473770   -0.62176587014733
O           0.85966581039572   -2.37447970577449   -1.44727355323061
H           0.75665349559119   -2.02114709953710   -0.53128253455243
H           0.20383289808835   -3.07411186375784   -1.52227139110118
O          -2.03941324427352   -2.49419491452847   -0.22948700618879
H          -2.69992351888865   -2.73354232693277    0.42165928053029
H          -1.27063919384851   -2.14239402527894    0.27465313791064
O           1.15660313035618    1.56677748136691   -1.40499702471886
H           0.35276855158270    1.96347724220730   -1.04660834682121
H           1.55468581397525    1.12172780397340   -0.61446211572373
O           0.08870862670845   -0.31599166709671   -2.72027109630955
H           0.47687922510370   -1.17796670408786   -2.31237495918705
H          -0.88892402329840   -0.21757897667429   -2.26094868020523
H           0.62362283533131    0.46737016507400   -2.30462019183485
N           1.03200615338821    2.56690758776814    2.57439083868114
H           1.55831858373080    3.18550678456357    3.17772326076626
H           0.41421152506698    1.05682647722514    2.91440426003522
H           0.34055137534676    3.11103792884267    2.07523602350165
H           1.66061451263048    2.15145041803236    1.89216275932371
