    26
        -50.45168972  Gyration_radius:  2.43175097446 Dipole_moment: 1.667
 S           1.74991222121151    0.12504861428612    0.45164561331168
O           2.05989962925550   -1.21376178893127    0.86705755966423
O           2.80535479440044    1.06558545577778    0.33552876582940
O           1.02467974789657    0.04715277244125   -0.92197068933428
O           0.69143080541595    0.71850363985687    1.41244708873791
H          -0.07482912754912    0.08736567875862    1.57549304822756
H           0.53928590316297   -0.82277100910671   -1.05435808261095
O          -0.22569408791001   -2.17965865495226   -1.31921695600425
H           0.27294023291920   -2.73078121748384   -1.92492640665412
O          -1.36277833959883   -0.77931430593645    1.74840451655835
H          -1.95059536556056   -0.37157145704000    2.38687817643227
O          -1.09043210590362    1.79253239944273   -1.65445389981601
H          -0.49990175426413    2.31732484466060   -1.05760491540004
H          -0.48813611106235    1.38019732506814   -2.27738802313243
O           0.12647128686889   -3.03490309933303    1.09265577273885
H           0.97060002115177   -2.54730507501065    1.16023256016815
H          -0.51242502910990   -2.50697395617378    1.59109789709962
H          -0.16025345409546   -2.62256566666231   -0.41740237307605
O          -2.26563681110244   -0.35313812065382   -0.60957141476422
H          -1.78594103806059   -0.62582948551733    0.83879238603968
H          -1.91826808099443    0.50427741298754   -0.96049183554788
H          -1.83806112602884   -1.04309847067405   -1.13069844896842
N           0.77552949099791    3.09914964161139   -0.19147030701144
H           1.12695151302465    3.97247126483715   -0.56625499337774
H           1.55481590346402    2.44882114129930   -0.13414279204762
H           0.47508089083735    3.27324210700457    0.75971775356136
