    26
        -50.45168975  Gyration_radius:  2.43179377716 Dipole_moment: 1.669
 S          -1.70392677241893    0.59437528503941   -0.15831606321776
O          -1.99768009180228    0.33163895629766   -1.53881063011730
O          -2.75145689605350    1.03426112817754    0.69099213822276
O          -1.09761348833565   -0.69785445208315    0.45925825265377
O          -0.56021009998602    1.63398159858739   -0.07553735399620
H           0.20775869798338    1.40831545413598   -0.68500415249825
H          -0.63750351131237   -1.27411989579427   -0.22357978101811
O           0.08312430876025   -2.22440270761705   -1.25988171836344
H          -0.47185508939839   -2.97966498094575   -1.46203664180538
O           1.49263631582449    1.03508574610044   -1.49083447752341
H           2.13761741716363    1.74178455957614   -1.42768726838351
O           0.97402725152211   -0.65839266059393    2.39928208954440
H           0.31597180163641   -1.35281413400436    2.32422786064776
H           0.44294989442725    0.16313756302101    2.55241028159232
O          -0.07934793134293   -0.51136934009269   -3.18636301170918
H           0.08653953282945   -1.64892305671693   -2.08606942720632
H          -0.90754575327980   -0.14812141936282   -2.81614515446237
H           0.60665314486491    0.12769993991038   -2.94901930624087
O           2.20157424281036   -0.88352792328112    0.04980833206302
H           1.84056411691206    0.28371252929873   -0.90406165640336
H           1.83843136577400   -0.74522486338680    0.95968366545097
H           1.72197757057503   -1.63783416819940   -0.31275832616973
N          -0.74366374143569    1.39918132833353    2.78085612955345
H          -1.52486302812943    1.19655663604213    2.16261841635754
H          -0.36163760228810    2.28766665981919    2.48078601494303
H          -1.11252165490120    1.52485221770846    3.71618178784578
