    26
        -50.45061079  Gyration_radius:  2.4789505361 Dipole_moment: 4.878
 S           1.60950742037677    0.99853511673149    1.47404098794911
O           2.16329850662972    1.38190318659214    0.08287254056938
O           1.84089223979994    2.07005070931536    2.37023760024721
O           0.07659780633746    0.83969633766734    1.20006578560959
O           2.06804467595577   -0.31082610961486    1.85014271723923
H           1.34845685317091   -1.51174353031932    1.03950506745167
H          -0.17940491768514    1.54332855388805    0.52332273906799
O           1.00231713817260   -2.19357358855907    0.41097727058123
H           1.40404021648384   -3.02379441695025    0.67230741501331
O          -0.63505336018289    0.27141187783646   -2.30266645740577
H          -1.11041249972604    0.20051171060235   -3.13109859033826
O          -0.34759301382240    2.43823075495593   -0.74105471179583
H          -0.52023707294323    1.73591518270123   -1.40680504400527
H           0.55603616774686    2.73688502049828   -0.88432392612544
O           1.84463386918402   -0.52547293962628   -1.53863431599751
H           1.02014601202249   -0.24974522955004   -1.98494190868639
H           2.11806874532039    0.58924279398512   -0.57429176491260
H           1.59621725346097   -1.27472830092547   -0.96075192123649
O          -1.49383168307655   -1.56215561253493   -0.70919384010671
H          -2.01247080173441   -1.15183275800873    0.02278159135906
H          -1.02905624043387   -0.42968898964933   -1.69086423657968
H          -0.68793597408711   -1.89995347753802   -0.28926440956085
N          -2.63162197062151   -0.32496067968099    1.42084973618631
H          -3.30825103915722    0.41138784901173    1.26555215900952
H          -1.74933099947376    0.11326670153020    1.66786385792266
H          -2.94305733171741   -0.87189018235224    2.21337166854588
