    26
        -50.45168976  Gyration_radius:  2.43176981673 Dipole_moment: 1.670
 S          -0.78466520492821   -0.35716756388900   -1.59363201098516
O          -1.90751222213035    0.53742161464442   -1.59439515004402
O          -0.49100238666246   -1.08542065749640   -2.77496479569259
O           0.48126636101231    0.45970845172861   -1.20766600034342
O          -0.95242593298896   -1.37536074396352   -0.44002342512363
H          -1.20133905092609   -0.93287305284897    0.42852436286786
H           0.26653800010866    1.26274298242635   -0.64277064890718
O          -1.43686855067968   -0.29636426662852    1.83520404160761
H          -1.57364090227533   -0.98421078019136    2.48910391457656
O          -0.01900919433648    2.54690975168071    0.23210603860623
H           0.04087108390548    3.33780397385170   -0.30658716459319
O           2.57511632629547   -0.59587005567901    0.39185701528311
H           2.69301522699119    0.08770192884724   -0.27126376632258
H           2.20598129862652   -1.36300037073966   -0.11378419050732
O          -2.50637476910599    1.94757549189347    0.58695530495343
H          -2.45313007374996    1.23526289537037    1.23896929431019
H          -0.99531110024827    2.42624324023763    0.44673852737000
H          -2.53968555768395    1.49923047110730   -0.28066720079646
O           0.93496853185249    0.63549425698232    2.08618846186600
H           1.57068766864795    0.10741484105513    1.54221721138431
H           0.87347965066275    1.49673776553861    1.65615059557584
H          -0.50681430718395    0.07241463962184    2.00544374724275
N           1.56455374697378   -2.49518446333973   -1.25153997083710
H           0.97411677172925   -3.15873746641178   -0.76527123565247
H           2.22668077814929   -3.02417478313667   -1.80687925943874
H           0.96050379853500   -1.98429809116392   -1.89001368651905
