    26
        -50.45168970  Gyration_radius:  2.43179186591 Dipole_moment: 1.671
 S          -1.51028883683167    0.99436052965512   -0.11087736350446
O          -2.45987491536952    0.19923409691170    0.61525358982177
O          -1.88954443130271    2.29429965962155   -0.53330453771113
O          -0.22897025666137    1.12883617727349    0.76022075741428
O          -1.04575817927447    0.20796751684074   -1.36050142054439
H          -0.79614037843842   -0.74241110732248   -1.14450522943576
H          -0.10833305079519    0.35739827054350    1.39298333404860
O          -0.24934010501483   -2.17576267684566   -0.85162105944859
H          -0.02262025040942   -2.61577566980299   -1.67284199471795
O           0.11840562238740   -0.82298403786498    2.41842254405767
H          -0.11141405894710   -0.54282291280705    3.30611308078392
O           2.38912485421249    1.14752801094452   -0.33669520183101
H           2.14089454101885    1.58616924154164    0.47990723804154
H           1.80515077033707    1.56086682172108   -1.02123584352071
O          -1.80807081113222   -2.24634636636232    1.45145097987625
H          -1.42133283648129   -2.58169422312007    0.63091190971218
H          -0.59737684537182   -1.47152965226098    2.13418316395899
H          -2.29707473132606   -1.44045565898652    1.19392234041132
O           1.90045335095553   -1.38975129947326    0.29646551718981
H           1.62442777912311   -1.27799830587204    1.21396185943297
H           0.63159629719492   -1.92767687167459   -0.41314404885606
H           2.14929225301527   -0.48665953925451   -0.02200148472914
N           0.65395727934598    2.44282871454834   -1.96164984548896
H           0.91938139733169    3.36891955921918   -2.27560248693353
H          -0.19455345847123    2.53255854474939   -1.40883888469559
H           0.40800899251561    1.90090119092675   -2.78097693415068
