    26
        -50.44787664  Gyration_radius:  2.44920290216 Dipole_moment: 2.600
 S          -1.46142160684648   -0.73915380446298   -0.85012201288468
O          -1.82269432735019   -0.52035191574319    0.52035503099646
O          -2.37893537641443   -0.27232840106967   -1.83488962643194
O          -0.05922771136070   -0.10533817727363   -1.08991524041181
O          -1.16156658237968   -2.23279824439450   -1.09078993042442
H          -0.44815641537084   -2.49066814394771   -0.42985629299453
H           0.01445450498889    0.69534082569562   -0.43869306122934
O           2.47192860739939    0.88463070946882    0.97960288394314
H           3.23348180895079    0.81810912583618    1.55712339024040
O           0.67070547392265   -2.72172174407667    0.66407728960107
H           0.42993177154636   -3.47773906139627    1.20262185268838
O          -0.08510339618261    1.88048242278587    0.42994509025046
H           0.72500959688492    2.39063071311337    0.34326397549252
H          -0.83889668097841    2.32636899985332   -0.05047053509728
O           0.38567010355700   -0.59371405935054    2.06760279721142
H           0.99890519021746    0.09891894827398    1.75472288849743
H          -0.49070749536361   -0.36702388428859    1.70788575721281
H           0.60049775290043   -1.91000575387765    1.27097570185579
O           2.49959520315030   -1.14536347386383   -0.80192150935933
H           2.58762896397906    0.18926500400784    0.29435313961317
H           2.16358926150776   -1.91122248053719   -0.31805790615479
H           1.73404589021159   -0.80518144772708   -1.28304336352920
N          -2.20011621329785    2.52764762959920   -1.01156864833163
H          -2.99702010127878    2.72920491131254   -0.41965879731521
H          -2.33818159580574    1.58504900555069   -1.37664177706913
H          -2.23341662715548    3.16696230623258   -1.79690110647554
