    26
        -50.46865547  Gyration_radius:  2.5680503267 Dipole_moment: 5.906
 S           0.28395878844297    0.18442228951029   -1.14554857381246
O           0.82159214702365    0.96884169364747   -2.36556454507710
O           1.23350517344128   -0.87679330906773   -0.85190260303501
O           0.24011504327057    1.13451958336945   -0.01226853953397
O          -1.04996758714626   -0.30189436923783   -1.44851684538626
O          -0.70647638782915   -2.62439242996004   -0.24463958991534
H           0.21982539595251   -2.40744897470957   -0.42771081249005
H          -1.16447900033777   -1.92534189421977   -0.74766944588271
O           2.86529577989490   -1.22100574656488    1.17129112322559
H           2.40295958200805   -1.04402783848831    0.31855313724630
H           3.07466081050272   -2.15689558069430    1.16790564887843
O          -1.19983584674146   -1.91366704803992    2.22594684549220
H          -2.11369059988666   -1.62502387400740    2.20314548634445
H          -1.02085187095553   -2.30563181339087    1.32613694236215
O          -1.22233072813127    3.25460264595576   -0.65142174846001
H          -0.59941351881823    3.98190160567334   -0.70027840162158
H          -0.71145349785182    2.47916297266276   -0.33469887605867
O          -1.51004379718267    1.86705629399718   -2.94807471222059
H           0.00371401877537    1.40203106808622   -2.75040254645559
H          -1.79070432893378    1.02188263820592   -2.56239741869442
H          -1.61114682979493    2.52287862652235   -2.22789498659993
N           0.71088482510664   -0.07585020658506    2.23356103583315
H           1.61881272166727   -0.56447289002934    2.03419431697204
H           0.78372007822798    0.52820564628649    3.04477886486837
H           0.50091972184815    0.48965794556094    1.35013880031147
H          -0.05957009256790   -0.79271703447227    2.34333747369983
