    26
        -50.44787621  Gyration_radius:  2.44948115242 Dipole_moment: 2.603
 S          -1.22404408001628    1.35864103641794   -0.25047766664673
O          -0.39865714108336    1.72190435977075    0.86463029672035
O          -1.41302807675295    2.35071760791443   -1.25525234329750
O          -0.63722427704891    0.06448807047226   -0.88787148011966
O          -2.59596567113639    0.85542694100146    0.24278821753743
H          -2.41008469538961    0.10104497054310    0.88212522658749
H           0.38343792216120    0.09332644548006   -0.71968105487231
O          -1.93998566054694   -1.05838562428370    1.84988781105975
H          -2.35193039121468   -0.93559614940416    2.70711478799305
O           1.53038517593660   -2.33798529735924    0.20900511739621
H           1.84680766116126   -3.11137272046548    0.67778763635046
O           1.82288973223140    0.34321688455383   -0.53620126541450
H           1.88353802834064    1.15840038214524   -1.11026021569886
H           2.31008592869396   -0.38751525806279   -0.92722729752560
O          -1.09739819146129   -2.62041371252292   -0.34818344187041
H          -1.12996250835721   -1.80556340121711   -0.86615822833047
H           0.60522910708319   -2.53899252004377   -0.05589678192139
H          -1.55634512505543   -2.40544935526348    0.47441911435996
O           0.55593895009720   -0.50236736290588    2.05461890936667
H           1.06769468894041   -1.00539161964531    1.39229940214646
H           0.47321205716346    0.40377537828358    1.70688021077101
H          -0.94829242083850   -0.88560863018619    1.98685355060560
N           1.42474483611624    2.54799156591561   -1.93315954794906
H           1.57639964619773    2.67604148522182   -2.92675593018673
H           1.80521652405336    3.35835870568943   -1.45918509355672
H           0.41733800006867    2.56130782711767   -1.77209992315512
