    26
        -50.45109216  Gyration_radius:  2.42433521813 Dipole_moment: 5.610
 S           0.01354252829053   -2.17391188515094    0.03933017276376
O           1.39605313367370   -1.96391303159343    0.49408793482759
O          -0.45141160803579   -3.51416540901337    0.00252071952631
O          -0.87640695456702   -1.40930389224503    1.14155185704201
O          -0.17738295091230   -1.40286538934161   -1.19255554212714
H          -1.35949853602975   -0.46670671255947   -1.55221631523288
H          -0.42387076422679   -0.57524046438883    1.28902683944351
O          -0.36161118906259    1.43450738329206    1.46284212992321
H          -0.39983718492329    2.11446468841939    2.13809601004968
O          -2.02325836131108    0.25135158539889   -1.76738665284489
H          -2.49659658738015   -0.04941795248485   -2.54358482278429
O           2.32181421853032    0.33594881006530    1.71436541785363
H           1.47074087558290    0.77875615784225    1.81649863787204
H           2.12025408278573   -0.60988558282494    1.61203657029398
O           0.23401848108923    1.73964361059032   -1.23653760316731
H           1.41251355255726    0.65680354256910   -1.21602135464071
H          -0.57037824485481    1.34120578593214   -1.61201262155879
H           0.05385907014726    1.82139401110268   -0.28467266781831
O          -2.76646736141081    0.66454821015455    0.79403748224144
H          -2.72412640642571   -0.24550919964771    1.10891308237211
H          -1.31608053076415    1.22121463744855    1.24594193853103
H          -2.67229968003436    0.60460750689372   -0.17814203273823
N           2.22325877960755    0.02638408248112   -0.93138151586879
H           1.83016346089138   -0.90206578514581   -0.57081096349923
H           2.66252331351473    0.43386538821039   -0.08317622677732
H           2.88048487327619   -0.11171007601361   -1.69075047368185
