    26
        -50.45877748  Gyration_radius:  2.39781898193 Dipole_moment: 7.461
 S           2.14267619954958   -0.32154921353557    0.48323041177427
O           1.82916114006256   -0.32320221644167   -1.05883601574948
O           3.32251010238774    0.42466229664745    0.76084779465983
O           0.93956358637939    0.26804840806128    1.12309044352642
O           2.17965050301954   -1.75512440452896    0.78752618699411
H           0.95234660885343   -2.09678074087293    0.15043689448495
H           0.39190317657700    1.73006344954017    0.83566552396213
O          -1.26353616793442   -0.29541419926621   -1.79128817044511
H          -1.96071858896240   -0.44230523430215   -2.43136301615791
O          -0.05477564377885    2.57921486824259    0.57426502308839
H           0.40738093384074    3.27764148756996    1.03904535003375
O          -1.09512346324974   -1.03828138416320    1.96561357428148
H          -0.27830225546432   -0.51444367339190    1.71702729209371
H          -1.00088957227021   -1.24770549691771    2.89543430168719
O          -2.26024379505412    0.90071031179315    0.31068524527908
H          -1.68660038028930    0.17122659316388   -1.01590205006750
H          -2.05753503178379    0.27038926156613    1.01873854825516
H          -1.65603204900436    1.64871727485423    0.44370934445599
O           0.62424223696632    1.79559562664598   -1.95011336035929
H          -0.10048591395639    1.18444315924314   -2.15090546856756
H           0.35719744585561    2.26577114977317   -1.13871984378321
H           1.54930957870746    0.56976308994376   -1.39497870296297
N          -0.08404186746767   -2.25275624045587   -0.22578398716681
H          -0.69356076056110   -2.06144861991281    0.59195464140400
H          -0.20676850164431   -3.19356833224823   -0.58477090751945
H          -0.29732751077507   -1.54366723100507   -0.95460905320647
