    26
        -50.45109211  Gyration_radius:  2.42432588096 Dipole_moment: 5.611
 S           0.19609789300496    0.71030696935496   -2.04567690306790
O          -0.69873961236357    1.77038905178932   -1.55809178274615
O           0.67068405322736    0.83568695419245   -3.37719727459374
O           1.48446151344279    0.82039177317291   -1.08682067400450
O          -0.40943992327252   -0.58106274407487   -1.70771136622584
H           0.27739076037824   -1.81024180060143   -1.05907026342556
H           1.12575950621050    0.92970679522103   -0.20274343217977
O           0.63911856842799   -2.57004981604930   -0.51649501747362
H           0.61419840996726   -3.33855831117910   -1.08726536687158
O           1.00174276796978    0.47641265519621    1.76028610296466
H           1.35673930047509    0.76245413381862    2.60400197849481
O          -0.96376009385714    2.51495435956820    1.08954433012034
H          -0.77574529330965    2.61610054909357    0.14075810781922
H          -0.24545967513858    1.97875883693729    1.44643087670835
O           2.66197121241485   -1.14840456521893    0.56567565757993
H           2.88261949401489   -0.60136277672924   -0.19669779290979
H           1.68022253807153   -0.15984158747946    1.38828131198959
H           2.04014936767788   -1.82342506714106    0.22614774089730
O          -1.03930911842317   -1.35601632255607    1.30043421375918
H          -1.90242595440775   -0.34404271006886    0.41012860180865
H          -0.55780402896433   -1.97255258943190    0.72178381897668
H          -0.36021260034856   -0.75156522559058    1.64496102921325
N          -2.35288021454766    0.52455178445886   -0.01226326830236
H          -2.26807832066745    1.29622814093959    0.67751816889164
H          -3.30977591980948    0.35333433138652   -0.29988736622596
H          -1.74752465017276    0.86784719099480   -0.82603145119710
