    26
        -50.45109229  Gyration_radius:  2.42431435535 Dipole_moment: 5.604
 S           0.62223113108709   -1.11748156296101   -1.75741357576351
O           1.68296974493699   -1.57941160507871   -0.84972325282902
O           0.59402157795222   -1.69345760810733   -3.05401646045674
O          -0.73806970386979   -1.56909750013463   -1.02460520125031
O           0.59914793830576    0.34748455184060   -1.71418587398210
H          -0.63481018638557    1.27337474120307   -1.56525568839247
H          -0.61081903151789   -1.33646216850511   -0.10147307666072
O          -1.18094767415934   -0.49666544565602    1.63850555878560
H          -1.61401857004588   -0.74015803965576    2.45885707840510
O          -1.37889443835644    1.90056269466841   -1.32958279125873
H          -1.48862111843858    2.47760884805362   -2.08587193132823
O           1.50040801986412   -1.59987103818238    1.90730456152441
H           1.61838104286290   -1.95701765616924    1.01052102331318
H           0.56882093388146   -1.35854922544540    1.97563291471344
O          -2.94638828745843    0.00440358596342   -0.22052817508593
H          -2.54983869346400    0.79636932012549   -0.63660403860275
H          -2.74300350447141   -0.72404171666608   -0.81813144071979
H          -1.92270276096010   -0.29287333787009    0.99683498471222
O           0.08750034142496    1.89661785941548    1.00323052995526
H          -0.38680761475920    1.14418956894691    1.39544933236874
H           1.46313352196467    1.18958227668950    0.59058980022976
H          -0.41694247421729    2.12319633858778    0.20259431504543
N           2.29547494099262    0.52861231115433    0.51313717446609
H           2.32415197333937   -0.05145221072628    1.37392096544213
H           3.16103149953359    1.02798656777341    0.34262899707550
H           2.09459138196063   -0.19344954926360   -0.25181572970728
