    26
        -50.45476384  Gyration_radius:  2.4736058259 Dipole_moment: 6.122
 S          -2.26535021376736   -0.44510832093973   -0.38691455963669
O          -1.21945971625760   -1.36712868954651    0.13294884864098
O          -3.57980125256765   -0.97469846452961   -0.29202668722073
O          -2.09056745608818    0.86542371577094    0.27729691906255
O          -1.92064274576827   -0.23667788506526   -1.89680171908674
H          -0.99385463209533    0.08272378114079   -1.96540370831914
H          -1.34288063021668    0.62111639825800    1.67300744591793
O           1.60637933908838    1.26032825382919    1.43410677926401
H           2.19355434068320    1.90860573325536    1.82398178063429
O           0.57623957928672    0.61043135862890   -2.23701895436466
H           0.82919058604441    0.45475173758166   -3.14780114193558
O           0.99443274706697   -2.78671542833132   -0.14419028464118
H           0.88206755787967   -3.47796050016773   -0.79784589238540
H           0.12526171637886   -2.34214554384169   -0.06654490430069
O           2.31207489761736   -0.49626780389022   -0.65465504920627
H           1.95660472987379   -1.38578328334087   -0.44882630941643
H           1.26805243242138    0.15884953201286   -1.66622501672893
H           2.22577635801479    0.02199069994250    0.15978192389946
O           0.00302943465778    2.40045231885884   -0.24899159741616
H          -0.86239239203558    1.96729394560109   -0.07729894254285
H           1.03269062591214    1.76121791380072    0.77278881022266
H           0.26946253358313    2.06335645592649   -1.11699594362443
N          -0.64889084993117   -0.00735884905025    2.17302555583271
H          -0.91881068810640   -0.25510819715580    3.11741497198950
H           0.30053519074407    0.41604377048134    2.11415680314086
H          -0.73270148242493   -0.81763263922165    1.46903088221953
