    26
        -50.45109217  Gyration_radius:  2.42425496046 Dipole_moment: 5.609
 S           0.52658255547672   -1.32471565820844   -1.64111114835543
O           1.88714011161278   -0.87228281342277   -1.31480171826023
O           0.40643224843013   -2.31508564853352   -2.65031261268036
O           0.00405954536892   -1.99604203799381   -0.27448778508865
O          -0.31324530855118   -0.13625259938231   -1.81629256681426
H          -1.72120992815082    0.12762954978990   -1.22355863498600
H           0.27285817363222   -1.38745867206124    0.41806321856975
O          -2.56109929242858    0.40004667770934   -0.75153175991056
H          -3.22249186149282    0.51717463277998   -1.43405138580277
O          -0.06411020437012   -0.26752774166331    2.06222284034951
H           0.01670020442456   -0.32319357419575    3.01625269831654
O           2.66890573924219    0.12344837618751    1.14141960036873
H           2.66618326462247   -0.46829561208926    0.36969737592277
H           1.85307333122699   -0.06328757591747    1.62141253193461
O          -0.68664900765422    1.96559380712159    0.52487559504564
H          -1.45934571629116    1.60967697413520    0.05259266014330
H          -0.48411872454566    1.30573829750543    1.20946873963378
H           0.61548614593016    1.83559530724353   -0.39716368565730
O          -2.28851609911287   -1.37808713140267    1.26053587474933
H          -2.58120596340556   -0.73034495165634    0.58798482684364
H          -1.91527834929434   -2.11203293635456    0.75932083791747
H          -0.94885848800679   -0.68439546820462    1.84562152914450
N           1.59337590096844    1.63684408334849   -0.77117752445633
H           1.60220572042901    0.66369891056429   -1.21782841351332
H           2.22919063448859    1.52141162683267    0.04175824256303
H           1.90393537744941    2.35214418786587   -1.41890931597668
