    26
        -50.45627838  Gyration_radius:  2.76762107559 Dipole_moment: 7.598
 S          -0.44732252074702    0.52633000715299   -0.59511097443212
O           0.16077283200633    1.01668661428449    0.77677816074504
O           0.26646917173713   -0.71881927742498   -0.91634818039716
O          -1.84619229137289    0.26286417769741   -0.28789228362700
O          -0.22856184830221    1.56274430792856   -1.57453104946421
O           1.06288391271242    3.83454363551784   -1.09461918271140
H           0.43564060528215    4.44103414451547   -0.69897484132170
H           0.54098500550844    3.05272051772522   -1.37548964315752
O          -2.59855985624142   -4.18369380889787   -0.00089785094988
H          -2.13546127305954   -4.75656485383477   -0.61632350722199
H          -3.40864099727732   -3.89709369123107   -0.42926886078330
O          -0.09187785528757   -0.63442035084161    2.92930239009714
H          -0.35504742268486   -0.13866113609361    3.70570915561261
H           0.08931326558762    0.02405881376799    2.23042621297175
O           2.38942974293815    0.47430237613689   -1.98938948509827
H           1.67514243339196   -0.10416660914539   -1.65652781936082
H           1.94207448700468    1.10478667999374   -2.56133524686364
O           2.44226076644717    1.93932257902703    0.23473274180391
H           2.66583393986233    1.37300313546547   -0.54104893739403
H           2.16612514715929    2.79333128119516   -0.15561983669580
H           1.11434276476738    1.38534304387876    0.60804865076148
N          -1.18201110341191   -1.92092593506258    0.83224378732277
H          -1.67409156620550   -2.81447013299461    0.70049469944744
H          -0.86004649176383   -1.74949982647092    1.79939797715345
H          -0.37561960044275   -1.79742817632897    0.17063155159811
H          -1.74784126761700   -1.07532750595434    0.50561235196105
