    26
        -50.45877749  Gyration_radius:  2.39780339756 Dipole_moment: 7.460
 S           0.27961490968316   -1.02453915787020    1.94928266805241
O          -0.90259409486192   -1.60438427221346    1.08762486157010
O           1.04639300433000   -2.07336960916570    2.53057006575795
O           1.07718641742518   -0.19871399681833    1.00777393454229
O          -0.42663411572975   -0.13134720938118    2.87261846983831
H          -1.20258756529619    0.54987217832315    1.89140109877076
H           1.78504724527473   -0.75432359361740   -0.29999529932332
O           2.11736459514864   -1.03884509780267   -1.19305061257455
H           2.95177821010683   -1.48279596367496   -1.03798926404058
O          -1.61796923458207    0.08836364741176   -1.50560647107804
H          -2.23747285704520    0.30728692619687   -2.20249636532085
O           0.73845954975994    2.29902422073605    0.55728802810308
H           0.94174193757135    1.34269176165760    0.77520484952913
H           1.30744058423072    2.82435272842449    1.12085376397050
O           0.69105266369708    1.20370502538864   -2.02231929838683
H          -0.75283761009995    0.52362126745648   -1.75068511103617
H           0.82445004372369    1.76571014648150   -1.24380227221266
H           1.31620692661086    0.46748415200842   -1.92519229066957
O          -0.25893045391071   -2.37613081352767   -1.30522866563884
H          -0.85268350631284   -1.66621831198852   -1.59254406195403
H           0.64481163648155   -2.02945254489573   -1.42263096788605
H          -0.58813673967622   -2.06296397586304    0.26326775727034
N          -1.64904796752197    1.13778703348855    1.05777355931536
H          -1.74726749885724    0.53035483632288    0.22060886697637
H          -0.94299095924248    1.86660933217396    0.84069958313910
H          -2.54239511091428    1.53622128073411    1.32657318327037
