    26
        -50.45476402  Gyration_radius:  2.47359565545 Dipole_moment: 6.125
 S          -0.15275383016579    0.60575434423338    2.25588877349069
O          -0.13887667838837    1.49179784569005    1.06032591974486
O          -0.47606814082543    1.28890908142746    3.45843025051300
O          -1.03007676472536   -0.54815099487671    1.95951046960230
O           1.30245634569330    0.04878385875249    2.37596953727222
H           1.54637440040146   -0.37825119812590    1.52517566466492
H          -2.07407396714425   -0.10372480838910    0.82673827205511
O           2.10621013387990   -1.12303359696345    0.12921574884697
H           3.06177002173541   -1.18951138945930    0.14439600539702
O          -1.19360354115981   -1.10706154797724   -1.89017223458792
H          -1.54896321810726   -1.72226184217056   -2.53227719986961
O           1.04928860759172    2.56496994816969   -1.04432595292099
H           1.78440978964609    3.12013471780009   -0.78118721877933
H           0.63861950033363    2.24628221172723   -0.21428744849165
O           1.35663338750327    0.08464246667860   -2.04372585302341
H           0.45240289197565   -0.23966469544840   -2.17241646660009
H           1.27387930212623    1.03171170763631   -1.80736894924359
H           1.86582962243699   -0.64389033800022   -0.71986866927938
O          -0.32154640908832   -2.38370387574721    0.18640692573808
H          -0.61783650880559   -1.82975230200387    0.94237553541649
H          -0.84768145027524   -1.66638982112613   -1.12535425923473
H           0.63969691730120   -2.26651320202314    0.16820561608984
N          -2.20443431667416    0.53293823924598   -0.01216160458063
H          -1.98871813198563    0.00198115617770   -0.88154568342337
H          -1.38120651058405    1.18193206332472    0.23395998944294
H          -3.10173146270381    1.00207197145012   -0.04190714823255
