    26
        -50.45476358  Gyration_radius:  2.47365439627 Dipole_moment: 6.121
 S          -0.92446209794436    1.26780173467041    1.73738082849790
O          -0.22870011513652    1.74987778415149    0.51383790653861
O          -1.55441350839378    2.30672072158611    2.47282800576465
O          -1.83245493366631    0.16767821347748    1.34347504753371
O           0.19289757103640    0.63472396608680    2.62772311604016
H           0.66098194297724   -0.05082722663279    2.10184873563236
H          -2.19263796830816    0.35136214615695   -0.20354284996839
O           1.56321980178178   -1.23144263163363    1.32069695815785
H           2.38851085767297   -1.38254285647304    1.78308458000154
O          -0.52744360468839   -1.50198453786218   -1.92209821848994
H          -0.71378213224577   -2.24365040628778   -2.49851771132281
O           1.92265302483567    2.01997399609452   -0.99954928105578
H           2.59156638491902    2.54417602558854   -0.55742020928348
H           1.14775135445280    2.00750433998614   -0.40076764966037
O           2.05489782836384   -0.66301688399970   -1.16471100760351
H           1.23576146610466   -0.92177826469852   -1.61347787131782
H           2.09291578106957    0.31487288415997   -1.21196845027409
H           1.80333038083470   -1.00771317649024    0.37168189713071
O          -0.88637963237527   -2.17696925778573    0.55175535664911
H          -0.00174021254796   -2.16469459666528    0.94586653848633
H          -1.33586976812527   -1.39583719920796    0.94381166276439
H          -0.65756005457403   -1.83763212464714   -0.97992008882093
N          -1.82907297637554    0.71644910618699   -1.13220595478008
H          -2.51161941847456    1.23755744521606   -1.66948309699454
H          -1.39961448416778   -0.06894644153547   -1.66400795500175
H          -1.05873548702597    1.32833722055402   -0.69632025862244
