    26
        -50.45476417  Gyration_radius:  2.47344979648 Dipole_moment: 6.119
 S          -1.66243591039652    0.80301537457334    1.43875692600947
O          -1.01520229665098   -0.53666293058162    1.42803449101759
O          -2.46997856274182    1.02857527273761    2.58511091648290
O          -0.60920318717834    1.82136945811318    1.22989477294496
O          -2.57663871647840    0.83193888077686    0.17171985424489
H          -2.02687054458299    0.62068483660003   -0.61492344280227
H           0.78460831572030    1.19955845896451    1.71027942610596
O           2.39670367649682    0.22291128157279   -0.65837504223473
H           3.23232535515784    0.46744523425277   -1.05710161125890
O          -1.21804401143191    0.25637506337947   -2.03965474068992
H          -1.84031487493883    0.00445402149758   -2.72305422432718
O          -0.51884403184265   -2.89696732278593    0.34346091662296
H          -1.31614418972731   -3.42442417261472    0.28101169104483
H          -0.77688286036485   -2.06651534102571    0.79371498407585
O           0.62128277934338    2.05370731092101   -1.10398175876724
H           1.74706708219721    0.95841821293981   -0.89171911278620
H          -0.02253307557737    1.64071974701418   -1.69807969651581
H           0.14505091044413    2.13003776364437   -0.24748030638011
O           0.56297095530633   -1.61248645940302   -1.76031415004921
H           0.23211443692308   -2.19245835050390   -1.04349367017633
H          -0.55823559370085   -0.49652479460945   -1.96137533891003
H           1.32238225408545   -1.13660710718038   -1.39130191421519
N           1.33047645452688    0.29431413075321    1.81069741676944
H           1.83189498060317    0.20671102607286    2.68648548378459
H           1.93739918868180    0.16621198623855    0.97438363671358
H           0.46705144613527   -0.34380156135423    1.73730449331932
