    26
        -50.45476416  Gyration_radius:  2.47355159277 Dipole_moment: 6.124
 S          -0.91582762444111   -0.01421236845022    2.15401895197645
O           0.12528924531760    0.89136129148913    1.59740542049056
O          -1.39767468884347    0.39651163509700    3.42540048373176
O          -1.97173596939630   -0.18026824401534    1.13074779723089
O          -0.21633303901904   -1.40272233491475    2.31160327481964
H           0.16373566214985   -1.66134209726261    1.44307555671617
H          -1.93565443713291    1.09731352106706    0.16776094821703
O           0.87946985997030   -2.22135772717154    0.03196321369208
H           1.52147562843690   -2.90427695155876    0.23000136795428
O          -0.47566133166489    0.45976588623329   -2.40639139597987
H          -0.72028831644921    0.41342724066696   -3.33109320472948
O           2.54159479264396    1.38184051396900    0.64164239567056
H           3.21479921108282    1.22444232110779    1.30484767850956
H           1.68225795134803    1.22482755950869    1.08427333595314
O           2.01437846856571   -0.34327675744012   -1.35647121003703
H           1.36390391826122   -1.51682296429365   -0.49454616128178
H           1.27042190179077    0.05526387253176   -1.83297446642290
H           2.31131829809893    0.32758940514451   -0.70727010721406
O          -1.51015030667114   -1.52483740503572   -1.10456445089974
H          -1.81740436208713   -1.11794303107548   -0.26429745283485
H          -0.88353259660865   -0.35070197896434   -1.96584057717332
H          -0.75619931855117   -2.07291420650059   -0.84145336003181
N          -1.30036633017264    1.83919049798013   -0.24864805914669
H          -1.69364783469586    2.77268857004614   -0.24453119326148
H          -0.98498475410026    1.52975174557303   -1.19148850018813
H          -0.50918403782464    1.69670203623933    0.46682972426489
