    26
        -50.45877760  Gyration_radius:  2.39789622796 Dipole_moment: 7.461
 S          -1.22201536448973   -1.38700835439092   -1.22983496472497
O           0.30135741114642   -1.77425485483929   -1.15262413486752
O          -2.04650153164611   -2.53791304960696   -1.08354626463002
O          -1.42819083614774   -0.40358682190590   -0.13674848728828
O          -1.29186891156417   -0.68201312803192   -2.51331250141677
H          -0.18374636562040    0.18509684867437   -2.29282216598282
H          -1.17775795084212   -0.70109047999846    1.40248014747530
O           2.16403791942017    0.39700729374630    0.23087814462902
H           3.03919939681565    0.75330304797494    0.38745451976921
O          -0.89681419806135   -0.80968511480892    2.35017720920842
H          -1.60602364505193   -1.28360895175793    2.78587289865816
O          -1.20160529193718    2.13759754396339   -0.35476653704110
H          -2.05013079685414    2.53732012578628   -0.54833664513750
H          -1.37396615861479    1.15504277114815   -0.26409604100594
O           1.25319138800954   -2.07440165745674    1.24303043254929
H           0.54748184827410   -1.72122866992143    1.81568237950145
H           0.57779566239985   -2.06794711283423   -0.24380075738670
H           1.81120772874601   -1.31577094323621    1.01463908793093
O           0.45713002255764    1.56661667854789    1.83100845337624
H          -0.01326058225548    0.81866948509524    2.23303386324715
H           1.55189100704197    0.86238405318537    0.86863185736327
H          -0.16822148309534    1.96469553232595    1.20634034453726
N           0.58456379692562    0.92876410140939   -1.98174747728943
H           1.10278655509967    1.27777877631249   -2.78092980233252
H           1.22082752093446    0.49659918223850   -1.28326800251461
H           0.04863286880984    1.67763366838495   -1.50339553663027
