    26
        -50.45476405  Gyration_radius:  2.473604274 Dipole_moment: 6.123
 S          -0.60463573187203    0.09171040793652    2.25981736365835
O          -0.05934799563915    1.17920657762966    1.40276100654139
O          -1.06710587593064    0.54921203783213    3.52237528740059
O          -1.61859879780855   -0.64507801558972    1.47354173872621
O           0.58842907444165   -0.89021658418860    2.49276642481705
H           0.94412053064226   -1.16352729817815    1.61842016357079
H          -2.18267171844329    0.33831344532069    0.34049459064243
O           1.66581558076911   -1.70075099394014    0.20179972259277
H           2.53842710740035   -2.05192995245033    0.38334921610675
O          -0.86941620148729   -0.23592165902193   -2.32670256064222
H          -1.17311528288164   -0.55307016808708   -3.17771311756068
O           1.86689675701665    2.29872168894604   -0.02202897125142
H           2.61363946571852    2.53446532028823    0.52995350234953
H           1.18616856673281    1.93633367535031    0.58146054185543
O           1.83530212348899    0.13663425954038   -1.62510685321760
H           1.78256575230055   -0.99168121194136   -0.49962486025635
H           0.94859037477933    0.13714820450840   -2.01640198209241
H           1.91911611783255    0.98496838286903   -1.14246383771772
O          -0.91514230571058   -2.15309653653665   -0.58709419646399
H          -1.26375201630407   -1.72356858541279    0.22536261138203
H          -0.88434803861052   -1.03191821150798   -1.70756112524849
H           0.01505341462893   -2.32914077561407   -0.38285905238456
N          -1.92823593974312    1.15832734553585   -0.28333546109219
H          -1.07125883847830    1.45504685537258    0.29732566756718
H          -2.64655281938937    1.86965837744058   -0.34744175577884
H          -1.61994331340629    0.80015338390481   -1.21109406347283
