    26
        -50.45577741  Gyration_radius:  2.44048106061 Dipole_moment: 4.633
 S           1.49939510721995    1.19358317169796    0.70404728173569
O           1.32093892531969    0.88836534669375   -0.79853064680451
O           1.71849219646423    2.59416469542769    0.82637609537922
O           0.12385876550843    0.82505837098411    1.32431550234592
O           2.45822263468388    0.28626308937750    1.26938616877030
H           1.96006443386550   -1.26375433532446    1.38087505709206
H          -0.48047477650158    1.62378350492095    1.03012443131267
O           1.62822467210534   -2.19226080852174    1.30498566667591
H           2.34458022985100   -2.75401668353958    1.60567993691904
O          -1.76367690795790   -1.43590185818514   -0.86462020085119
H          -2.37907627308562   -2.13439925990138   -1.09209488490975
O          -1.02357791947461    2.80324841899831    0.36965700774798
H          -1.23720771207230    2.40752647311184   -0.52958746631987
H          -0.17603237636376    3.26234672453267    0.29857315111720
O           0.90275936513267   -1.56031055305802   -1.22984116985751
H          -0.07877351912171   -1.57128934506652   -1.22673133944783
H           1.20988238292803   -0.11920334365035   -0.99880886005138
H           1.18394334334931   -1.97757561764461   -0.39254665899187
O          -1.07087351491453   -1.63764450342196    1.67893285875425
H          -0.20888978548980   -2.08213834324506    1.67509899608054
H          -0.85845120771568   -0.70823021306172    1.84181535677383
H          -1.62259638835956   -1.49969446421315    0.11541333220654
N          -1.38433731809678    1.44689956429441   -1.87406808606400
H          -0.42520719590434    1.36389050478678   -2.19148312585751
H          -1.96180936992860    1.71702603975320   -2.65978721220746
H          -1.67937780142878    0.52426343416036   -1.56718119157483
