    26
        -50.45577741  Gyration_radius:  2.44046988724 Dipole_moment: 4.633
 S           0.26986344672861    0.87308291979507    1.82563233034575
O           0.95964236486593    1.39694643837051    0.54786327909676
O          -0.26563854266759    2.00086847905313    2.50817193394194
O          -0.88961093940480   -0.00919506152045    1.28706529044484
O           1.16095349981529   -0.00755468597740    2.52752087513223
H           1.44673928495427   -1.43386948108475    1.78787677816314
H          -1.58443922025894    0.69956997575583    0.96371342000532
O           1.65733561774047   -2.21762243695889    1.22273012147618
H           2.32528703163120   -2.71425302879271    1.69845964174585
O          -0.28619460199750   -1.03365193631153   -2.18406515448329
H          -0.32930099780395   -1.59678563907306   -2.95826883234156
O          -2.24182477559393    1.92988327657534    0.54337546169040
H          -1.77601181928573    2.49761209694159    1.17177579273648
H          -1.81207990039436    2.04859032865180   -0.35786769706003
O           1.96759534491985   -0.46439830662072   -0.82182593405919
H           1.99290460531299   -1.20805416385346   -0.18886949298734
H           1.22406990284179   -0.65019732509575   -1.43511702035037
H           1.43112415346498    0.65408880888539    0.00603818573856
O          -0.82386482245524   -2.44328011513721   -0.01274944026008
H           0.03925483130691   -2.65383974702675    0.37617013671285
H          -1.16543747361380   -1.72677525699651    0.53987887441488
H          -0.59561876848441   -1.58763828582259   -1.42132062456548
N          -0.86819647048596    1.95237879552166   -1.71845948652335
H          -1.07441896518975    2.49462480273041   -2.54743837445766
H          -0.80706696746019    0.97442849936014   -1.98738632391929
H           0.04493417153562    2.22504104868038   -1.37290375063809
