    26
        -50.45577747  Gyration_radius:  2.44035808842 Dipole_moment: 4.629
 S          -0.53117700817966   -0.28000176786594    1.95103614676510
O           0.30823765149787    0.92999086927580    1.48812222049044
O          -1.54710112381230    0.21721198581418    2.81440202657071
O          -1.17448686570002   -0.80956006293171    0.64018892562012
O           0.34068772976501   -1.31761585478549    2.42598502126404
H           1.23176080843300   -2.05105912130737    1.27227600908996
H          -1.92544644417378   -0.10853662519738    0.45501661704230
O           1.81567421823134   -2.36044244857630    0.53651522148381
H           2.43530490110795   -2.97572265982466    0.93226485228199
O           0.66645452609427    0.34837424009125   -2.31398014674356
H           1.01399196896982    0.31541765354291   -3.20642748240252
O          -2.76895264910692    1.07926843319181    0.46218787619083
H          -2.15532105328629    1.72169896272842   -0.00856546555553
H          -2.69094228706335    1.23646127396467    1.41265615508311
O           2.16617882511106    0.25670116743704   -0.07752159733542
H           1.71748246862945    0.38046705233789   -0.94172982741166
H           1.11162343413761    0.66474841014630    0.89489616461185
H           2.22757075750422   -0.70800897132795    0.06351369634033
O          -0.02774464238626   -2.07816373724575   -1.52644769010164
H          -0.70828808283958   -1.82948122818599   -0.88579323417146
H           0.33009776736414   -0.56342429791994   -2.11404483340439
H           0.71046098627732   -2.39120396483976   -0.98090537175467
N          -0.87747456258569    2.49142484013218   -0.73442504857207
H          -0.98796324556152    3.38446964104341   -1.19699580966982
H          -0.45683514184733    1.84342590805182   -1.39441877355746
H          -0.22379292657436    2.60356030225275    0.03219437783896
