    26
        -50.45577741  Gyration_radius:  2.44048034836 Dipole_moment: 4.634
 S          -1.78153522036247    0.97930086455219   -0.18935924606547
O          -1.47713211581366   -0.33669761108189   -0.93648926676291
O          -3.08208595805862    0.85296378390069    0.37384414539405
O          -0.72277719061938    1.01539459643300    0.94656049155811
O          -1.49896143038561    2.09640199538395   -1.04634435100399
H           0.08316918842162    2.34163306859565   -1.36216399144732
H          -1.09149528564882    0.31272619846171    1.62475096258183
O           2.12155283290200   -1.17641271621704    0.18968469802982
H           3.03176220270182   -1.47609710573302    0.19875255697682
O           1.04398883865762    2.34979128619734   -1.59623409021757
H           1.15254353625487    3.05082380312082   -2.24114927624440
O          -1.82765060175339   -0.77221292109889    2.26001751791740
H          -2.66685863484242   -0.57765915911663    1.82179681796298
H          -1.40797501585602   -1.55581721253682    1.79018775358533
O           2.00961908063080    1.38699651286069    0.82748889937298
H           2.13306229064239   -0.24605620340831    0.53428459639538
H           1.93211903139102    1.85774661793173   -0.01686171011024
H           1.11387102593717    1.40310811588354    1.19196280162751
O           0.80813571849303   -0.32054498903858   -2.00156572252783
H           1.33556860045883   -0.73677522642218   -1.28598394963009
H          -0.56972573595855   -0.32371881629219   -1.43048336073638
H           1.04111444367012    0.62810847535811   -1.99707893024444
N          -0.55828042844500   -2.56691048453714    0.78633040373889
H          -0.50841770498219   -3.56350593171350    0.95399711821835
H           0.39056109969674   -2.21040434555205    0.71485377565022
H          -1.00417255729857   -2.41218258609366   -0.11079864420763
