    26
        -50.45577742  Gyration_radius:  2.44045177656 Dipole_moment: 4.632
 S           0.48588077022404   -0.47552644901746    1.92494340008885
O           1.51776185451099    0.09343429641976    0.92779380776725
O           0.64109271712236    0.23869807517604    3.14574318264656
O          -0.88423966450742   -0.12150303532338    1.28450902042411
O           0.57087746593323   -1.90894895382821    1.94070083971946
H           0.04756111645165   -2.64645384116250    0.58228719454660
H          -0.96818340986215    0.90123584982547    1.47579583095320
O          -0.17599225798957   -3.00516663495270   -0.31179681342761
H          -0.00815625012126   -3.94803159220113   -0.26756056225035
O          -0.54542446236086    0.55490566818934   -2.30527376994018
H          -0.80982298421838    0.58941885701575   -3.22573531520823
O          -0.69861476179120    2.29137842622885    1.81859890452400
H          -0.16516482855573    2.56158490540468    1.01029452660881
H          -0.07706001450300    2.08733286165005    2.53011327447897
O           1.39238741844820   -1.03793630111251   -1.32183276152287
H           0.88314292781111   -1.84853859048580   -1.12703176698897
H           0.77654107899897   -0.43118428052041   -1.78668289316019
H           1.52176664271063   -0.40030608634178    0.02009510035356
O          -2.10631766939178   -1.11834185364998   -0.98074201045506
H          -2.02492129620015   -0.72199923290943   -0.10225285198947
H          -1.22414138550937   -0.00194598287304   -1.84297868708731
H          -1.60149728894754   -1.94402495739846   -0.91770014626692
N           0.70983269456105    2.61861376579637   -0.39795259879478
H           1.54803464198195    2.10161146964850   -0.15766637055891
H           0.98256032120533    3.49740884125785   -0.81883701919994
H           0.21209661414032    2.07428479553240   -1.09683152526716
