    26
        -50.44243828  Gyration_radius:  2.49234993487 Dipole_moment: 5.219
 S           1.80558605804929   -1.20872289610026    0.57719621584342
O           0.57589283323668   -1.42993613410092   -0.15207634464134
O           2.83943747098696   -2.14845739053340    0.35039566285311
O           2.26990967511407    0.25242645659255    0.27330605289131
O           1.48062654890086   -1.11016303106136    2.07456594277197
H           1.08962916103968   -0.18183201017653    2.23465510283339
H           2.15320814603955    0.43355950730998   -0.70375493535883
O           0.60498167678961    1.26031044799447    2.30407577503028
H           1.32108330601471    1.73174220338738    1.87086748939250
O          -0.82281955097756    1.31992585230063   -2.06919450416439
H          -1.29219274426754    1.73255928326118   -2.79592314414770
O           1.83012001076948    0.92070582791159   -2.17203172718149
H           2.24713905082359    1.76563915162642   -2.35372875183376
H           0.85792842606615    1.07408438545691   -2.16864951104263
O          -1.45360867195649    1.43455732758476    0.68401576860825
H          -1.78525186250383    0.52902537396648    0.85120340220491
H          -0.20334042332580    1.39250126509771    1.73509742016485
H          -1.19754795541351    1.47356260582373   -0.24940361822867
O          -1.50754172895322   -1.18652340473398   -1.80261162449368
H          -1.11166765258831    0.36557680356840   -2.05176791741770
H          -0.67317081979743   -1.43430824092233   -1.36246986552713
H          -2.18252607001162   -1.26360832531404   -1.12261315896988
N          -1.82799301871670   -1.20185371817942    1.39001756119600
H          -1.63353844298135   -1.05828254728693    2.37452682614534
H          -0.94095442582439   -1.45766680115032    0.95500881353344
H          -2.44338898654553   -2.00482196231621    1.32929304956684
