    26
        -50.45577735  Gyration_radius:  2.4405845508 Dipole_moment: 4.634
 S           0.67158716191956    1.90087466738396   -0.32343938974217
O          -0.81581363955932    1.58159545082630   -0.06180773508757
O           1.01237819355218    3.01704774022226    0.49061468265566
O           1.41829817639180    0.63736173417769    0.18515845978499
O           0.90735493316375    1.97247603626258   -1.73820316967095
H           0.80853211465057    0.54805657105569   -2.52850922761025
H           1.37098297092677    0.74634642906254    1.22225231286707
O          -0.83036369930133   -2.25787190990521    0.36686432216716
H          -1.08405589452789   -3.18151151001829    0.33744090815209
O           0.61596603918155   -0.32777606598450   -2.94542554488646
H           0.69466451306286   -0.19280635588202   -3.89134532973419
O           1.02787420007233    1.16548050853212    2.57468157974733
H           0.11537816258612    0.75055427408139    2.65168439636407
H           0.91229514070928    2.09862941196681    2.35092923235671
O           1.49588998313752   -1.92253890690300   -0.84417994544376
H           0.08788693599267   -2.21112830183892   -0.00596182020667
H           1.27842299987260   -1.59763812053222   -1.73171579045137
H           1.79096435042438   -1.13410397005861   -0.36801260609483
O          -1.61794315513414   -0.39212185638578   -1.41020764145463
H          -1.17738598355028    0.81436683887575   -0.65187770556137
H          -0.92462834869788   -0.48309939670032   -2.09229831872150
H          -1.46580328772153   -1.11597349893543   -0.76494750852566
N          -1.34294724175629    0.00336951515740    2.39140296055705
H          -1.81426168991596    0.65047235809486    1.76958100203453
H          -1.96753268985646   -0.22347536705972    3.15444667878826
H          -1.16774023563297   -0.84658626548713    1.86287521776558
