    26
        -50.44243839  Gyration_radius:  2.49230798545 Dipole_moment: 5.218
 S           1.78404434682469   -0.08261403844143    1.36609570054186
O           1.48128433802519    0.44618417128427    0.05404585684452
O           2.93497029604425    0.44563216556820    1.99835875256825
O           0.50375960520899    0.09406299417449    2.24517982805593
O           1.87028936753371   -1.61289565066277    1.27376910337744
H           0.91367373403758   -1.96392860176222    1.23168998162879
H           0.11705197567761    1.00121526913455    2.07596689424530
O          -0.56892087194088   -2.31265604491661    1.25960053778335
H          -0.87227550246972   -1.82790124068187    2.03144038584756
O          -1.86784056226905    1.69224687423638   -0.58875081937176
H          -2.53134173843519    2.26156075165485   -0.98169462293818
O          -0.70925542766658    2.30920800996128    1.75385879678986
H          -1.14643404649808    2.11553599592898    0.89367619587909
H          -1.40656992081884    2.44346467626454    2.39928812754245
O           0.31640079798070    1.65658952031097   -2.02058221827631
H          -1.06030803570339    1.75618686622864   -1.17037033932387
H           0.88281281333483    1.40819149267050   -1.26648409010946
H           0.30953528467388    0.88522943983416   -2.59411630098088
O          -1.65358006333661   -1.11731784434371   -0.81109521719566
H          -1.78629820249711   -0.16799752452596   -0.67109570386225
H          -0.87549111920881   -1.21321232351573   -1.39707117441975
H          -1.04236134793142   -1.91793705295548    0.47566737340146
N           0.82986232583573   -1.50723457071792   -1.93843271410366
H           0.93718967639319   -2.45351906327849   -1.59101373413850
H           1.25644218405043   -0.89429732804889   -1.24284927033341
H           1.38336007303549   -1.44379694319180   -2.78508131972059
