    26
        -50.44243837  Gyration_radius:  2.49232178143 Dipole_moment: 5.219
 S          -1.93058217128042    1.07134084210954    0.42486010082332
O          -1.10446771597169    0.08149490912446    1.08107354201005
O          -2.86243888442720    1.74728618021390    1.24837121587094
O          -0.97203341053735    2.06526065561385   -0.30737712317088
O          -2.63890728316314    0.41161199100791   -0.76705801249908
H          -1.95059611784516    0.32909270023319   -1.51516107070735
H          -0.20391760270489    2.27966820451114    0.29682135319846
O          -0.82392060253120    0.35983109783090   -2.53972838812460
H          -0.55136966767578    1.28036458957134   -2.50722267599019
O           2.49495708476128    0.25034385578048    0.64089807192882
H           3.41474771714504    0.15792489646689    0.89427551956948
O           1.15660235342430    2.54074849750157    1.05750894610318
H           1.65276406160172    3.24937383813795    0.64215831994334
H           1.67209805172654    1.71276633252498    0.92610076555403
O           0.95565112787094   -1.28292044421065    2.09085347365336
H           0.77757320451018   -2.09879092938672    1.61482283351732
H           1.97237637036592   -0.33625022957029    1.25510880582639
H           0.16513625203572   -0.72888701405756    1.95162494589933
O           1.15984761697115   -1.01410844651487   -1.50557354471980
H          -0.04331659790733   -0.17598689977752   -2.22667146518217
H           1.64662551840637   -0.52148760843727   -0.82824625003075
H           0.59540854910854   -1.66180805940242   -1.03673236411756
N          -0.86864243380711   -2.42508370175715   -0.28715017938699
H          -1.10322502582260   -3.23452219513699    0.27584802018963
H          -1.45757596754936   -2.46358646236530   -1.11138925620633
H          -1.15279442689670   -1.59367660994793    0.23198441607199
