    26
        -50.44788111  Gyration_radius:  2.44088826207 Dipole_moment: 2.453
 S          -0.26722130472779    0.49878879635646    1.72858543981189
O           0.99653131742248   -0.16414846297463    1.57420092562080
O          -0.26553570516379    1.69747154694776    2.49788101789187
O          -0.84716886031988    0.77644469335182    0.30998213799742
O          -1.31399603259896   -0.47696267169678    2.30067090436135
H          -1.33298521447452   -1.28460459593503    1.69667524490722
H          -0.04586602174594    0.87183133452944   -0.33414429639203
O          -1.25416009570477   -2.46573145287532    0.66367861968875
H          -1.11358777509975   -3.28898079007487    1.13480428481635
O          -0.26486919553095   -0.65294173936666   -2.74386518921261
H          -0.30546065480220   -1.28497275959161   -3.46290039783033
O           1.21415514621305    1.11719892899609   -1.07200705419700
H           1.61111265573253    1.79659085312223   -0.45414440294612
H           1.03105962011645    1.51335439489839   -1.92690878798092
O           0.90832931242501   -1.83298358927838   -0.54973610952239
H           1.21131417415852   -1.19957428931915    0.12459743200917
H          -0.39496356931606   -2.28442502251432    0.14794279455358
H           0.68563289082926   -1.30556674902093   -1.34327403122339
O          -2.51393188844230   -0.82053260028024   -1.25141024887547
H          -1.14364772295243   -0.67983761017204   -2.30570157286943
H          -2.35880370258748   -1.59105983525138   -0.68943167438303
H          -2.27299439072957   -0.06204992981371   -0.70402540927401
N           1.96158958288645    2.69848914710233    0.90097658322712
H           2.16048101202993    3.69170823276690    0.92997136163609
H           2.74880660212666    2.21344945934865    1.31551128027651
H           1.16617982066422    2.51904470033046    1.51207115773706
