    26
        -50.44243833  Gyration_radius:  2.49230090968 Dipole_moment: 5.217
 S           1.11025242483445   -1.11721516759046   -1.60451699359814
O           0.81787890839207   -1.29819849168465   -0.19932486998119
O           1.51125000719033   -2.27698849647694   -2.30993670262163
O          -0.13998603283343   -0.44230780438041   -2.25605600675887
O           2.15745517600190   -0.00385853809607   -1.75160900031835
H           1.67015332971465    0.88307200740113   -1.62472170091301
H          -0.96659028384359   -0.88099663288649   -1.90204430475844
O           0.77259135030682    2.10643732917296   -1.49075045335721
H           0.08231353269059    1.91686877232228   -2.13132639797708
O          -2.34546735183535   -0.07198209068717    1.09139713766467
H          -3.12109490608758   -0.06956745938190    1.65455811525357
O          -2.34396263826358   -1.33820843928671   -1.27652806375820
H          -2.37402269379000   -0.89094779707958   -0.40038596256417
H          -3.08278853747438   -1.00253095947739   -1.78867227259376
O          -0.39365293523618   -1.42741139302503    2.17581238971678
H           0.20389293609901   -0.82306961295789    2.62491234140584
H          -1.66175194410231   -0.63087262621696    1.55466540219683
H           0.03340872796079   -1.61902800133479    1.32017569589422
O          -0.36991285039577    1.93740163525207    0.86695499897324
H          -1.09562833668260    1.29608982506402    0.88795552873783
H           0.39326667560043    1.51915771492370    1.31485847061359
H           0.32948068587493    2.12721440554380   -0.59756236799339
N           1.96700427226955    0.65198428132547    1.55740289934095
H           2.51453209807280    0.26235637316180    2.31609482179932
H           2.57271577968169    1.29750360457816    1.06333309188805
H           1.75866260586630   -0.10490243817490    0.90531421369348
