    26
        -50.45807530  Gyration_radius:  2.4206998619 Dipole_moment: 7.659
 S           0.06108059559888    0.52815668001371    2.13441996603705
O           1.42251028195360    0.28953775483004    1.67736635950130
O          -0.09129886999979    0.85119380687211    3.51011238231432
O          -0.50411723263412    1.72735241149739    1.25047564789021
O          -0.82140090589888   -0.60228688822233    1.71432533935307
H          -0.42668485762866   -1.79123642372277    0.68816422132669
H           0.29654227822008    2.12844954780698    0.81503682226217
O          -0.27716705963101   -2.46159762607241   -0.02841705708322
H          -0.49068117039955   -3.31320271373865    0.35413932509950
O           1.17691125531618    0.57329655290951   -2.04113160192870
H           1.70788058907827    0.61119621778785   -2.83764386804372
O           1.67400233888758    2.35330176031372    0.03869733860758
H           2.03222795034966    1.68247961577882    0.64573777482880
H           1.52521680788554    1.88909600703128   -0.80453114789402
O           2.12525858938461   -1.18085164419353   -0.39707320960681
H           1.60863629978246   -0.11742843668121   -1.44755426851946
H           1.99993590556861   -0.68594955767884    0.44316789146762
H           1.44670172688010   -1.87323041158197   -0.36892822820139
O          -1.18711148140230   -0.73793685996855   -1.96361053290434
H          -2.03024566619955   -0.02305815394077   -0.88533434361205
H          -0.38424178453557   -0.19256792401166   -2.10641422643682
H          -0.87878110359720   -1.51310458839533   -1.45995211506784
N          -2.44598356105127    0.37840211413892    0.02542490049399
H          -3.43406502086965    0.17153918396809    0.12311126678442
H          -2.25932843747914    1.37843579533204    0.09461300691427
H          -1.84579742757757   -0.06998624007574    0.82579834641621
