    26
        -50.45807517  Gyration_radius:  2.42141367421 Dipole_moment: 7.657
 S           0.89439508096532    1.21716750123657    1.60416101699091
O           1.77040990240402    1.25982309259086    0.44218237532455
O           1.34278543259753    1.92218620016875    2.75387757848621
O          -0.50352295720900    1.81946292398064    1.13336744071153
O           0.52841115891911   -0.19874481948911    1.91185226238948
H           0.82965516784935   -1.48823701375106    0.97975319485825
H          -0.31459466442301    2.26402257695135    0.26249903724180
O           0.87545041749988   -2.28444653446027    0.38887019286849
H           1.28825876788198   -2.97683147540655    0.90589958334428
O          -0.41929300338283    0.16648762129738   -2.38295059361339
H          -0.44603303234251    0.09173200385233   -3.33765310016303
O           0.20300593712319    2.60943239059290   -1.20778661904340
H           1.07455532600685    2.32872764933850   -0.87826188575025
H          -0.12727622651659    1.86313329420987   -1.73946913955983
O           1.89478581441464   -0.54535358377397   -1.47829098668239
H           1.71584568246599   -1.35675242516507   -0.97807803970530
H           0.50784222419849   -0.11402125014319   -2.10441501320912
H           2.00773946389337    0.14424898724948   -0.78683124551288
O          -1.54316115735555   -1.68834405201923   -0.76785168484489
H          -1.93795722747814   -0.93388156574888    0.52020482498627
H          -1.26448851496242   -1.01064580985119   -1.42007871578170
H          -0.71562792380045   -2.11256969843236   -0.47644494235086
N          -1.96223070108333   -0.38862771473753    1.45066305759096
H          -0.91420682898838   -0.33458513422470    1.76847924601031
H          -2.55225351182109   -0.83497462827737    2.14443650214860
H          -2.23249461686290    0.58159144401295    1.29186564326325
