    26
        -50.44604379  Gyration_radius:  2.49115722478 Dipole_moment: 5.650
 S          -1.25146260281455    0.25634870801700    1.69970265209136
O          -1.74226558416363    0.49179989905079    0.35524153299304
O          -2.14408702176694   -0.45074853064442    2.54838473821716
O           0.09749892170319   -0.53215547557312    1.57023602926340
O          -0.77257248272723    1.56023130385954    2.30878382507513
H          -0.03184888523376    1.88858162883592    1.64882227220090
H          -0.09470462448289   -1.43028163128792    1.20107725168891
O          -0.54055763580362   -2.73640070366809    0.31345369899343
H          -1.42747605426122   -2.96138435210657    0.60096965606445
O           1.87869075297748   -0.00900347365096   -0.83219910329310
H           2.71940301130238    0.29542610458313   -1.17866352792811
O           0.90651600494269    2.19842303524675    0.56489368335885
H           1.24808012347984    1.35307485020617    0.22046517503602
H           0.29940962175342    2.54506192765026   -0.14105839670339
O           2.23379818850047   -2.57286505597871   -0.03173759473875
H           2.41555570087418   -3.15704331775635   -0.77095735017068
H           2.05317942891180   -0.86845072722384   -0.39229517239848
H           1.35886545734783   -2.81748594109596    0.29962816035325
O          -0.64444589443845   -0.95919499564181   -1.57624603156518
H           0.24738032461185   -0.57883601255114   -1.54554158271395
H          -0.63276493652482   -2.19401867667068   -0.52577168608529
H          -1.17627783977560   -0.37442242194500   -0.99986964369192
N          -1.00216004922486    2.78719364023544   -1.22222644548345
H          -0.93206703797386    2.57383091510206   -2.20918987335573
H          -1.52482517732879    3.64813031134697   -1.12601246719974
H          -1.54086169988448    2.04418899163314   -0.77988979998907
