    26
        -50.44604381  Gyration_radius:  2.49106296051 Dipole_moment: 5.648
 S          -1.56196361989465   -1.37699882922531    0.42695522636366
O          -1.81946968370906    0.04470559441071    0.29938366074762
O          -2.51527166242445   -2.21799018856239   -0.20636788333302
O          -0.13629976478181   -1.64598708812359   -0.16763919565311
O          -1.34404434378847   -1.73195142773516    1.88528244896046
H          -0.53335082038671   -1.13687787196852    2.16994523175891
H          -0.16171480461976   -1.47239738681150   -1.14191477278647
O           1.98950876514257    0.50525963627668    0.08617513283725
H           2.84244388179909    0.78034366943437    0.42718731947255
O          -0.29782081215115   -0.85686916517271   -2.65663137459170
H          -1.19401733529016   -1.04793804009593   -2.93983857654017
O           0.55027708123241   -0.17047195718267    2.37584247785876
H           1.03655174601499   -0.08999440706906    1.53504378815995
H           0.05040606804347    0.68246704146490    2.47425251559769
O           2.46047101884190   -0.91512811603203   -2.17234913008008
H           1.57079577095605   -1.15663462954266   -2.46435857067626
H           2.83382325674773   -0.36905172575795   -2.86736279364799
H           2.17035530914650   -0.14431513965206   -0.62660304107777
O          -0.23883934922712    1.38877318085270   -1.35481872956621
H           0.58678463561983    1.30938713857797   -0.85176021900555
H          -0.29068996248304    0.08979373425258   -2.32393492457041
H          -0.92629379466693    1.05477210635063   -0.74414757760241
N          -1.04879842656315    1.97885125327276    2.29187984519472
H          -1.57704448147739    1.46495835593190    1.58852647809286
H          -0.77707227315147    2.86637294075204    1.88825677406273
H          -1.66872639886581    2.16692131135199    3.06899589011324
