    26
        -50.44364340  Gyration_radius:  2.4927765424 Dipole_moment: 5.411
 S          -0.70330652410567    1.78685388527727    1.32080330535585
O           0.72596333692265    1.92267743664209    1.29097127141799
O          -1.47537245678978    2.83449066555237    1.87701953984089
O          -1.17987120994090    1.48989680167430   -0.14730145033234
O          -1.06839761163834    0.45134146592746    2.01707803592020
H          -0.27532653508780   -0.16966209063235    1.98115291692700
H          -0.51804928967829    1.89148653530478   -0.78491937924739
O           0.97042535747173   -1.13150928856034    1.99475564765630
H           1.43912136055762   -0.96215363413563    2.81444087206979
O           1.11574713800204   -0.31733791675149   -2.25248170344936
H           1.42323160226131   -0.89327299304219   -2.95298217621110
O           0.46502211540758    2.27284435983738   -1.96496491315299
H           0.84614577451403    1.39186940712365   -2.16497562031719
H          -0.02729351897991    2.54807418606152   -2.74123689389604
O           2.35334536302940    0.09158342342694    0.18975978371191
H           1.55832283048711   -0.75701359708952    1.26934679263248
H           2.01647479874839   -0.06470764493994   -0.70821628422951
H           1.96438595316479    0.93501185680185    0.48641899850674
O          -1.29745754849379   -0.95170376656833   -1.53460340922303
H          -1.33199026231241   -1.60840483499790   -0.79442608028380
H          -1.56346315675938   -0.11600484157724   -1.12886126103244
H           0.19868717612489   -0.63483102040254   -1.99944835368079
N          -1.40857498373684   -2.42233809576600    0.71963250065144
H          -0.48217570627626   -2.37058018098558    1.12991271950239
H          -1.73395999644837   -3.37768858752159    0.79482900419887
H          -2.01163399645316   -1.83892151062580    1.28829615657096
