    26
        -50.45689318  Gyration_radius:  2.42815891159 Dipole_moment: 6.670
 S           1.22350160552522    1.49759809835740    0.83872404294782
O           1.67894948646266    0.09153047341002    0.91558749226895
O           2.21956090204065    2.36645004251022    0.28409253078949
O           0.00626465121192    1.43895851155009   -0.19635843018433
O           0.59254663538740    1.90161175981230    2.07924901826136
H          -0.18568610265673    0.58538099183805    2.58065245289299
H           0.44306112728701    1.24956993140311   -1.05168656383681
O          -1.89002698187741   -1.56377209182607    0.80505742008695
H          -2.68394057692006   -2.08867581583333    0.91262842567697
O           1.92520120444355    0.98940111306939   -1.97310974749920
H           2.29854059322941    1.61739583792616   -1.32454419679419
O          -0.56253577816027   -0.38185212243244   -2.75657909149205
H          -0.10609928128719   -0.99510709318319   -2.14361298657252
H           0.11110722846769    0.23535951697295   -3.05386059956658
O           0.56772255767627   -1.74947593264353   -0.70907525890227
H          -0.23954561925378   -1.94168013531414   -0.21489099203678
H           2.34380132128173    0.14273597744528   -1.79216568152014
H           1.06515765484707   -1.10707409159256   -0.16916585564179
O          -2.38573462374077    0.31249953291735   -0.89882068410086
H          -1.91696895823581    0.03459383635962   -1.71596971888136
H          -2.12506706329410   -0.84361935230354    0.13710115929104
H          -1.83213862235888    1.02246234248169   -0.54704660032334
N          -0.18073077333451   -0.47631018004079    2.55363476521220
H           0.70616901914385   -0.56477103514181    1.96724790262990
H          -0.97461900524388   -0.87817039133718    1.99920324682377
H          -0.09849060061547   -0.89503972443045    3.47370794051566
