    26
        -50.45689311  Gyration_radius:  2.42832810109 Dipole_moment: 6.668
 S          -1.76279141825717    0.60528989430762    0.98512373224079
O          -1.19611063552719   -0.72256420928195    1.31090266880459
O          -2.00077642925124    1.40070594706278    2.15370122317259
O          -0.59703391999862    1.31358689867872    0.15072922093983
O          -2.83958891749409    0.48219976062529    0.02313019554916
H          -2.37279862720503   -0.71251160121348   -0.94976873317768
H           0.09730887264401    1.47619553559829    0.82142070382138
O           0.61224806621590   -1.31913665103406   -2.13288741333835
H           0.98761027688748   -1.64896417886148   -2.95004868557810
O           0.63689068154042    1.39058614577037    2.49802931259247
H          -0.31169021318784    1.52921030842317    2.68661482635731
O           2.58809469689725    1.12983967876565    0.30452262447860
H           2.34678451556896    1.65713003487927    1.07056878049493
H           2.29994572063590    0.21646856713310    0.51172645863474
O           1.13614841477418    1.20397898527165   -1.96308795067176
H           0.83562631965529   -0.33459227024605   -2.10547968430607
H           0.34454198275076    1.51900062187808   -1.50661542581474
H           1.83915762964561    1.26504778903165   -1.27979685670113
O           1.36343673255319   -1.26046616024500    0.66092554471564
H           0.46618261382852   -1.08289504131950    1.00017856692380
H           1.25297213610458   -1.49416134434065   -0.26966460123754
H           0.83637811361621    0.49628076770090    2.78985014844308
N          -1.79463473238217   -1.60194315702688   -0.99820325858532
H          -0.94132454188952   -1.50705600996942   -1.60001806897373
H          -2.34646699330181   -2.41984821096357   -1.23296160956360
H          -1.48011034485144   -1.58138213060370    0.02110830073461
