    26
        -50.45007685  Gyration_radius:  2.50587557105 Dipole_moment: 4.971
 S           0.61400646440276    0.71929939959510    2.26168545521975
O           1.80888437048454    0.74957598969261    1.44677884412489
O           0.62013709550424    1.49024245938987    3.44661101458818
O          -0.57560161680186    1.11914604676884    1.33369318560030
O           0.26372823036785   -0.74264509960023    2.61031096781112
H           0.25919491923252   -1.30604444889917    1.78219695413161
H          -0.16676234414299    1.66699778336780    0.57578712830872
O           0.35422772498560   -2.22600370335020    0.48708775335759
H           0.57597572958277   -3.12181026201412    0.74770424838428
O           0.78941226858473    0.34967980510801   -2.30032297932197
H           0.78251072080673    0.46319663145323   -3.25118213223185
O           0.72584955430378    2.31057307038490   -0.47452401458601
H           1.53354420783783    2.12798426638274    0.02518180927285
H           0.73115448248560    1.67966230092097   -1.22965901220650
O           2.38106627902946   -0.99549661756718   -0.50092306933761
H           2.00310475790825   -0.52721338084466   -1.26601145081811
H           2.40156107434571   -0.34193647691417    0.22399622123466
H           1.18283851775383   -1.83843176989612    0.05413402886939
O          -1.19914635869153   -1.16258235157717   -1.60857558875636
H          -1.90646664979296   -0.61527808790205   -1.18928518254647
H          -0.00428008699662   -0.22614878978883   -2.07894481822702
H          -0.81607593563005   -1.68245648996793   -0.88770477482584
N          -2.96637978378273    0.36174878656770   -0.23197892375769
H          -3.32607878083760    1.19175169398901   -0.68601207262013
H          -2.32283910980311    0.66335581210582    0.49404738066813
H          -3.74356574113086   -0.10716655739146    0.21590903765594
