    26
        -50.44604374  Gyration_radius:  2.49111253869 Dipole_moment: 5.646
 S           1.50709423685879   -0.00213971730784    1.49889826950692
O           0.27366559566262    0.74252692372046    1.66601946161228
O           1.93812605025144   -0.71378198610181    2.64996158281173
O           1.29073377288549   -0.99787991307972    0.30723069362849
O           2.58321650309494    0.90442162047560    0.93284594400877
H           2.17781145091864    1.24202154323329    0.03070476961049
H           0.61497731925312   -1.66988181165527    0.57509521231595
O          -0.71592693480969   -2.49973556519411    1.05669079024641
H          -0.63956170732566   -2.59282229225786    2.00820898139274
O          -0.53486584726206   -0.18052758328665   -1.97563090814238
H          -0.64501962827197    0.01558678188682   -2.90779312425010
O           1.39748262155866    1.64832538038935   -1.14281805253928
H           0.78109352253616    2.32516326819822   -0.75675283681870
H           0.83114562560091    0.89609641352987   -1.39444384574498
O          -1.87918421282584   -0.25243001718144    0.47584763529199
H          -1.32300549505253   -1.71922109986439    0.88587279187354
H          -1.21113766954285    0.23133795745439    1.00190866027165
H          -1.60482107370007   -0.11441205033259   -0.44430603297014
O          -0.62567021418537   -2.87622453284021   -1.71722415184070
H          -0.39879145054241   -1.14985632069974   -1.90879754648805
H          -0.51329792892069   -3.00453037860977   -0.76537196241008
H          -1.48978001057188   -3.23035082788690   -1.93741236879164
N          -0.30928923849215    3.18029772769629    0.24415221317393
H          -1.29151078633339    3.27434330529647    0.01862706765837
H           0.01000045585054    4.06387130552834    0.61962584048160
H          -0.22348496665041    2.47980186888180    0.97886092614077
