    26
        -50.44604381  Gyration_radius:  2.4914903198 Dipole_moment: 5.648
 S           0.76985805218805    1.96799173302741    0.24195818157275
O          -0.00557333657497    1.32348060975449    1.28460285034757
O           1.91579321990272    2.67327482441929    0.69622300179837
O           1.19827940261501    0.85368396493930   -0.77443954106711
O          -0.13864739801313    2.82101621742733   -0.62266841428781
H          -0.84475838146687    2.14400902042470   -0.98973535632474
H           1.82814775232087    0.23770015914372   -0.32310740325811
O           2.60058678650963   -0.83811195690236    0.64554408432153
H           3.06187236335808   -0.31745349730070    1.30583530078484
O          -0.66083333300425   -1.50505778621473   -1.23248510750109
H          -1.21215965891693   -2.00933984514082   -1.83352297090117
O          -1.76595990329734    1.05204928511676   -1.32353166846374
H          -1.24680818119041    0.22771173524539   -1.35352384778577
H          -2.31642728862733    0.98698037281679   -0.49904716231322
O           1.89081086738080   -2.32983797821269   -1.61525437105322
H           2.01372665947764   -3.24111376564487   -1.34118072941766
H           0.26877996168649   -1.68212302268841   -1.49172268543419
H           2.38874192259269   -1.78776968739080   -0.98803944601344
O           0.17331331497231   -1.31969741777802    1.43093950367727
H           0.01819985251661   -0.36069246710373    1.54664700674981
H          -0.27123204124277   -1.53485686799212    0.59607438803162
H           1.74318306483285   -1.14951884130766    1.06366844760255
N          -2.85505161271389    0.92361528944720    1.12216100863385
H          -1.92207103585147    1.14364314971720    1.46714474415709
H          -3.15233362505654    0.06120101036043    1.56076291860793
H          -3.47943742439138    1.65921576181332    1.42669726753754
