    26
        -50.45689319  Gyration_radius:  2.42811878466 Dipole_moment: 6.670
 S           1.19514508411126    1.60814364910943    0.65389528966484
O           1.82099357646621    0.56323991135194   -0.18674342728141
O           1.41705955370972    2.92859476787059    0.14217787070764
O          -0.36878957605066    1.30042008850021    0.52822097237574
O           1.47356444558805    1.37382751780531    2.05672395207061
H           1.45366699309890   -0.22749165901797    2.20715682324463
H          -0.57483477547442    1.54060189776779   -0.39810956741056
O          -0.59893681625106   -2.36758036925311    0.83578085517156
H          -1.02372597185791   -3.18920625137108    1.08451731492247
O          -0.04248598436566    2.18233368886115   -1.95308424464915
H           0.54972948206139    2.72187752701453   -1.39396164205557
O          -2.15355847523070    0.12940864052037   -1.84577626672857
H          -1.31161326400221   -0.36390838680459   -1.93491088038413
H          -1.95699897957151    1.02809259760652   -2.12299494461789
O           0.25206724112232   -1.09593021719712   -1.61884616337703
H           0.52882758089383    1.58034602056873   -2.43888915699566
H           0.86249679287345   -0.46338621734298   -1.19602578218904
H           0.01346179598211   -1.73242530788191   -0.93268457477403
O          -2.39969001741070   -0.51810104544121    0.75754767628287
H          -1.33206936939585   -1.67313272944081    0.81926477395535
H          -1.88293343777618    0.24487153954252    1.04918519024781
H          -2.54151132920498   -0.35134473668427   -0.19997545359170
N           1.62031090328865   -1.14024773456182    1.69011535453797
H           2.35401856802961   -1.70292295674201    2.10687077693120
H           1.90511796847759   -0.68983825919766    0.76602259610734
H           0.74068801084743   -1.68624196557967    1.52452264779202
