    26
        -50.46516758  Gyration_radius:  2.53873311742 Dipole_moment: 5.800
 S           0.15916270500215    0.41114368704405    0.43753229292969
O           0.83199401287045    0.31519953475055   -0.96885179636684
O           1.16886169497853   -0.18332051281362    1.32841588219301
O          -0.13118754487777    1.78906136017657    0.73922094625208
O          -1.03449155866147   -0.42874167964656    0.39498092674441
O           0.24075993861542    3.79729246440071   -0.96306232572883
H           0.09430629840011    3.14360696990633   -0.24755341474902
H           1.11790492459285    4.15528493727638   -0.82169422135036
O          -2.56737059853687    1.41942967328688   -0.75372115395212
H          -2.15304633791742    0.65549474746181   -0.30893169100822
H          -2.40105006762786    2.16637300465970   -0.17196430718379
O           0.14750132349242   -2.16158713832124    2.85869772549421
H           0.54919166675378   -1.38429030576184    2.42204620565335
H          -0.54050285738409   -1.81628575343858    3.42962183086064
O          -0.57528500924008   -3.01246493166157    0.41446677117289
H          -0.96387316898139   -2.11504864090525    0.29044211435339
H           0.79907061687454   -2.66997299278550   -0.05676467989827
H          -0.42920264681604   -3.04832853595889    1.38193042350318
O          -0.57866265257248    1.73570063412682   -2.49117808292557
H          -1.45697224528852    1.61551817363756   -2.05939593311127
H          -0.28397533199138    2.62299856126807   -2.20419571668883
H           0.27347199928962    0.87147325392167   -1.63935730218171
N           1.74521723931027   -2.13488240614634   -0.23439456432921
H           1.74775925371190   -1.71663327515207   -1.16335142124220
H           2.56399390459310   -2.71294174071868   -0.07435618933437
H           1.67642445141405   -1.31407909860508    0.46141765089799
