    26
        -50.44604374  Gyration_radius:  2.49163644458 Dipole_moment: 5.649
 S          -1.75323703542884   -0.27891266195874    1.17238085366317
O          -1.81785733849784   -0.15169520012860   -0.27102550539961
O          -2.58198109247354   -1.29248497715484    1.72258907978385
O          -0.25585363965982   -0.55281040129979    1.54797614160847
O          -1.97557349569573    1.07496855333601    1.81904500929607
H          -1.21634612066294    1.67171844108940    1.42014900020402
H           0.00268422992488   -1.44095375664041    1.19558886115254
O           0.34980189010571   -2.76990096443526    0.29784053062695
H          -0.44849039368993   -3.30142941464565    0.29023342325645
O           1.93222631749362    0.67866247513315   -0.16373327407680
H           2.68287410885385    1.27136767059581   -0.23263375973757
O          -0.13551091679572    2.34187403124330    0.68865615392622
H           0.56601247969558    1.68367117368125    0.53187555932895
H          -0.55294448929331    2.49878412611956   -0.19907773677481
O           2.85222482033306   -1.65079213363403    0.86791596720114
H           2.05475579761080   -2.19590076675414    0.91318250797775
H           3.44874078063820   -2.09517221667045    0.26189194053787
H           2.23354769280063   -0.09294835963517    0.36216466082485
O           0.28084698301504   -1.03537808956592   -1.63269656481901
H           0.36240311661569   -2.24668169051145   -0.55833128960824
H          -0.57691489881541   -0.69942610905013   -1.30327111248560
H           0.92640875213460   -0.37518805289502   -1.33553758763083
N          -1.42163950877975    2.34056921491737   -1.66304495546742
H          -1.79030146794696    1.43541790503781   -1.37547202370475
H          -0.96002879492776    2.21791078305366   -2.55541604100114
H          -2.20584777658026    2.96473041077139   -1.80124985867448
