    26
        -50.44604382  Gyration_radius:  2.491316124 Dipole_moment: 5.649
 S          -1.42919347247918   -1.05444859652637    1.17051262787456
O          -1.44915638718585   -1.10584118571671   -0.27887425721843
O          -1.64499791911836   -2.30002422081312    1.81774435863343
O          -0.03868521115372   -0.46733432204973    1.59521692996793
O          -2.36865875368333    0.03093481637425    1.66027094197553
H          -2.00483278637901    0.90049494071649    1.20937892475158
H           0.66778759214013   -1.11456598097292    1.34645038618262
O           1.71552960022131   -2.13735838092061    0.60603118269345
H           1.31093087809984   -3.00603124415190    0.64595625101094
O           1.30324677702443    1.57476327564349   -0.20864174386104
H           1.63902548981348    2.46473281873820   -0.32983248127552
O          -1.38220032937302    1.97188859808803    0.42422398581507
H          -1.75635577950718    1.80869127168292   -0.48156256656696
H          -0.43163322378237    1.76922419957270    0.35172274579349
O           3.22503696903602    0.17169575261673    1.08621484622794
H           2.82733642290943   -0.70484548005461    1.17922765030194
H           4.00705099556254    0.05692403543423    0.54222976796472
H           1.92339417395632    1.12375702169946    0.40347544321906
O           0.89199199974743   -0.86998733599765   -1.50497869847820
H           1.51493801240920   -1.76137350309119   -0.30245078565466
H          -0.03594746038669   -1.00693140081512   -1.22700767780351
H           1.07748877380737    0.05335734809291   -1.27289080929692
N          -2.30933558981496    1.09264167977764   -1.93190489383848
H          -3.29132195598237    1.19814232657938   -2.15139700882550
H          -2.17316486887979    0.15738026041631   -1.55163509307737
H          -1.78827393700268    1.15411328566743   -2.79748002648712
