    26
        -50.44604380  Gyration_radius:  2.49139477428 Dipole_moment: 5.647
 S           0.24488982001667    1.94751216355964    0.81961834808757
O          -0.73103294445857    1.01723002516650    1.35434630285299
O           0.98591904244382    2.66562074593976    1.79539860011556
O           1.22046541143580    1.12480381188202   -0.09122336069309
O          -0.41454405027659    2.85550756370392   -0.20082820982650
H          -0.79305553034671    2.19567131878720   -0.91706832983190
H           1.73766664251773    0.50242281023059    0.47891810486987
O           2.27573341773105   -0.65829747355255    1.50601187146296
H           2.35114392335576   -0.23844389790362    2.36501579911917
O           0.13968196053890   -1.27868184125681   -1.60206805626589
H          -0.04302597595034   -1.70473687870871   -2.44149333853364
O          -1.30274879607363    1.10155223226371   -1.75109634577131
H          -0.66720372035515    0.36503211304349   -1.69126539109638
H          -2.09965352972082    0.80446269486935   -1.23762487753930
O           2.75339368858881   -1.71620112190867   -1.04185467217380
H           2.93002735448480   -2.64509225507918   -0.87859578975828
H           1.11415365813621   -1.29335280186256   -1.48812671592875
H           2.87077347737997   -1.26414287545056   -0.19509938000580
O          -0.13459252998583   -1.56131623776788    1.16703950141468
H           1.39768183952546   -1.14394261734019    1.49264774980220
H          -0.49627228540615   -0.67114370530523    1.35118409464670
H          -0.18579409747660   -1.64544718434392    0.20204508517095
N          -3.18470255894101    0.34404381659503    0.00070678464688
H          -4.00203152963357    0.92557422376378    0.13297729291236
H          -2.50702055589791    0.58991256861447    0.72055713344732
H          -3.45985211157888   -0.61854719793575    0.14987776886778
