    26
        -50.44604376  Gyration_radius:  2.49163361309 Dipole_moment: 5.650
 S           0.41820665452697    0.63485403024550    1.98727141661472
O          -0.90628919461762    0.19230773946060    1.59535484286975
O           0.86381995693820    0.15119720374075    3.24602242525518
O           1.41106973483965    0.18320983467043    0.86101473847708
O           0.51139647987188    2.14446384362567    1.87313997049289
H           0.29035852159806    2.33463635694679    0.86990252589553
H           1.45690803390495   -0.80556894335993    0.85572929042016
O           1.18585773221952   -2.42217443013900    0.77983760421383
H           1.01816731300878   -2.70600746851864    1.68049120943874
O           0.42048925569105    0.07556112273666   -2.00943038930710
H           0.48507070683619    0.39447976475442   -2.91145799265520
O          -0.11665616129948    2.38167346743329   -0.53898085105000
H          -1.10156394942973    2.26939375485174   -0.47363041800666
H           0.20862934460017    1.56853001522094   -0.96666930466251
O           2.34659426358030   -1.80221839577573   -1.69134508637323
H           2.17672133375952   -2.57836725124381   -2.22922183599711
H           1.21833846775423   -0.47278478116156   -1.84973575262452
H           2.22862440148276   -2.07745729667889   -0.77181963290956
O          -1.02417135311180   -1.63061385080955   -0.32888769739043
H          -0.69902699531666   -1.08160988816065   -1.05950741191417
H           0.29257557493975   -2.29968047024133    0.33936479992066
H          -1.16763903992932   -0.99767301107620    0.40317516780697
N          -2.67782412419873    1.75751934651555   -0.05348178430199
H          -3.28342440554682    2.44403415508853    0.37736573613160
H          -2.31317669425431    1.15654100598226    0.68386482181176
H          -3.24305583790163    1.18575416588612   -0.66836638217771
