    26
        -50.44604375  Gyration_radius:  2.49148483383 Dipole_moment: 5.649
 S          -1.15469900196013    0.42132359326185    1.73643984371662
O          -1.78098603846250    0.12991899558439    0.46103674080564
O          -1.75852864271743   -0.20656940054907    2.85812208835991
O           0.34748666639034   -0.01419494479679    1.62661492897676
O          -1.01394969654953    1.92154130038235    1.91011536654591
H          -0.43923698041084    2.21681232834170    1.08910972274376
H           0.38634165514354   -0.99912208122284    1.53506523590883
O           0.25984715602059   -2.57331695337989    1.09096347580898
H          -0.50793902476856   -2.91792167731776    1.55096600306699
O           1.74586097268070    0.21361513520731   -1.06120594765430
H           2.44297541847831    0.60255142966940   -1.59248065787095
O           0.30191585379684    2.42105390839488   -0.16058745045515
H           0.83890120994797    1.62310725649667   -0.31828617771265
H          -0.42346592646786    2.38867543572806   -0.83867051865161
O           2.84849278338376   -1.84425365649238    0.31205128952452
H           2.18168137757531   -0.41343405549802   -0.44505039501070
H           2.10227125658959   -2.18636955658511    0.82318231599183
H           3.12243751757724   -2.55367930107826   -0.27316987505990
O          -0.46070415810645   -1.50218676879973   -1.16154023767977
H          -0.03623011806330   -2.33695475527107    0.16174000280440
H          -1.09271102667750   -0.92537933424672   -0.68718709479847
H           0.29072438673481   -0.92161384054833   -1.35952278678280
N          -1.81147777858850    1.97950845877625   -1.74898965576215
H          -2.09267252000342    1.28747115413585   -1.05620957154283
H          -1.75259908726136    1.51407879266318   -2.64587750508226
H          -2.54373625428206    2.67533852711737   -1.80662914019201
