    26
        -50.44364542  Gyration_radius:  2.4071297968 Dipole_moment: 2.440
 S           1.63083964477693   -0.95619317578879   -0.14436787023487
O           0.92046942565927   -1.25591125921583   -1.35872099980960
O           3.01661248752308   -1.22435729623842   -0.08973816175695
O           1.39656058858172    0.53615947192278    0.21923305466824
O           0.93727506476426   -1.70087736498016    1.03361632455635
H          -0.06183137063017   -1.67555682450459    0.93858152936736
H           0.51230745329417    0.87433339017041   -0.16367263690987
O          -0.89067847625206    1.41194324191016   -0.45780868451404
H          -0.74915630340720    2.32367746131643   -0.71853230405709
O          -1.63923511882022   -1.64673698188636    0.82850354852166
H          -1.99602799963386   -2.53205829000296    0.91936175148628
O           0.80780720847010    0.49109436380773    2.92942979914145
H           0.97706745578704   -0.43467360097078    3.12178712984298
H           1.26371753039249    0.67264326788748    2.09529235989777
O          -1.71326069353275   -0.92947293195461   -1.64448364848709
H          -1.69142327448752    0.03515177436396   -1.56541241606611
H          -0.78152264113340   -1.17600174821193   -1.79362305567194
H          -1.77888836593257   -1.38168593090496   -0.13670530904670
O          -1.69570129099754    0.93873928835122    1.95609858964050
H          -1.93727762198088    0.01637915145254    1.79513710665678
H          -0.86267342139433    0.90318659687642    2.46790327305329
H          -1.28775793201295    1.38429322913223    0.46382446810161
N           1.19184433882714    1.47136806597296   -2.55029081948044
H           2.09511524946739    1.77228212800734   -2.20328714795743
H           1.19740487322724    1.61169388288294   -3.55399972942887
H           1.13841317944066    0.47058010060323   -2.38812615152195
