    26
        -50.44604367  Gyration_radius:  2.49172512298 Dipole_moment: 5.653
 S          -2.04680730484987   -0.44860113895605   -0.37056110520366
O          -1.16850331532632    0.01858040806744   -1.42603501339130
O          -2.91077097799234   -1.51457860091477   -0.73718018296758
O          -1.13814620656956   -0.88764266874913    0.82942120513509
O          -2.79030207623298    0.72516943871257    0.23778623664689
H          -2.02983196989796    1.35537056158295    0.57837004809772
H          -0.61166049348831   -1.67992997474852    0.55566313927090
O           1.47708511037131    0.58806124061071    1.30192779643131
H           2.01625942783066    1.13691773390900    1.87420671424542
O           0.38681550752657   -2.77619427976890   -0.14697237140098
H          -0.14538643905848   -3.24492617527472   -0.79263963997800
O          -0.81953457830648    2.11710197355713    0.90665347391030
H          -0.11582561138252    1.47617680900463    1.11612178485239
H          -0.57197746121075    2.50191036655819    0.02482584550377
O           1.76151535723325   -1.96731891362693    2.15450167746256
H           1.44847494606493   -0.30161922682441    1.71462804188833
H           1.19774598488607   -2.46219595407403    1.54420953582819
H           2.65497848374031   -2.28942617475446    2.01789336903612
O           1.39426020329637   -0.63403686413299   -1.21278086100775
H           1.60852895165798   -0.10027286877382   -0.43171339025941
H           0.89419694417994   -2.06701883636123   -0.64365859058806
H           0.49777245261691   -0.33772641433715   -1.46904280222905
N          -0.25053396082841    2.74246007794717   -1.63702747591075
H           0.69151382410020    2.80755038423870   -2.00150224761546
H          -0.81948005191203    3.42486075252963   -2.12102811786588
H          -0.61038677644029    1.81732835455056   -1.86606707998296
