    26
        -50.44334405  Gyration_radius:  2.38715214168 Dipole_moment: 4.559
 S           0.24573693816046    1.94032383103202   -0.28479468833746
O           0.95146224681206    2.38031830300561    0.88377522608892
O           0.44602562507399    2.63247054422754   -1.50970062209332
O           0.56349431478667    0.42737916018988   -0.47488401980361
O          -1.27059330084212    1.88503125559211   -0.00371068475308
H          -1.47299695575071    1.20544104276368    0.71048037054384
H           1.53187812575040    0.19826603710000   -0.55534062309865
O          -1.71837342882603    0.13333577629347    1.82486881274551
H          -2.23155774546600    0.50612080769108    2.54413226440659
O           1.12940223528546   -2.11461252920530    0.76950211522925
H           1.00211078446549   -2.95174116872368    1.21809009767217
O           2.89557576178340   -0.64599796963766   -0.61912370516152
H           2.48127192193795   -1.33910515227858   -0.06811688033216
H           2.99147625624794   -1.01359171703550   -1.50037726122893
O          -1.21023579853644   -1.67044420152691   -0.39692637864418
H          -1.18053558167566   -1.04397838542084   -1.15146601090525
H           0.28661178327072   -1.94037920414455    0.26653851018452
H          -1.62706924599011   -1.17918973801357    0.32072330777547
O           0.78269669200026    0.13969988985627    2.41132108182503
H           1.10942079716802   -0.58970124664386    1.85571720738146
H           1.01989984547308    0.97487727214588    1.96534753902015
H          -0.76553853209871    0.06927870803622    2.15463626495445
N          -1.43445837050924    0.27632018305954   -2.43011391735154
H          -0.76728135317776    1.02522489183436   -2.27683715162368
H          -2.35148724309413    0.66352274075706   -2.24072613852884
H          -1.40693578223866    0.03113086902333   -3.41301472598420
