    26
        -50.45007689  Gyration_radius:  2.50575135045 Dipole_moment: 4.972
 S           1.40950903118061    1.19823112476019    1.60772986622903
O           2.06642676284836    1.24961720839503    0.31985046962492
O           1.78881314219106    2.16645422760321    2.56544351183159
O          -0.12624965041323    1.24608313970931    1.33335759852975
O           1.57672694706783   -0.20974191760477    2.21678289616029
H           1.31298759400208   -0.90985644656306    1.55087402904385
H          -0.23333819049360    1.70111186820172    0.42599395836477
O           0.99738685211139   -2.02701178552021    0.46213688313645
H           1.49645038037446   -2.82023071856429    0.66536912965384
O          -0.43790091015105    0.03416535651668   -2.41779845091230
H          -0.90013143106740   -0.03012754270406   -3.25397351768060
O          -0.07483423196740    2.26503173483326   -0.97779336975480
H           0.88986149726770    2.29254834375017   -0.91356707147978
H          -0.28087184707973    1.51498389272083   -1.58053751438971
O           2.04106542068119   -0.72303287612518   -1.48949098185172
H           1.26728076951779   -0.45990343574480   -2.01819548347349
H           2.25130232159541    0.04798069867712   -0.92873660978013
H           1.43504321127013   -1.61150915860473   -0.35033927679666
O          -1.52441296076628   -1.59241629893054   -0.71685449560644
H          -2.06160355894844   -1.08412196167695   -0.06209761024986
H          -0.90243744936873   -0.59782522915440   -1.78895636017686
H          -0.75549527923535   -1.91268236893023   -0.22403422222001
N          -2.74951018293996   -0.11064830481012    1.19253713402277
H          -3.44384256416165    0.56315607713523    0.89515863967552
H          -1.92565896457762    0.40639251287345    1.48610570223249
H          -3.11656671892597   -0.59664815024696    2.00103513585743
