    26
        -50.44364522  Gyration_radius:  2.407378245 Dipole_moment: 2.442
 S           1.30699084572647   -0.56516457658237   -1.25248200432383
O           0.37063952010504   -1.65477954100074   -1.18042613268634
O           2.20137564436606   -0.51567166318707   -2.34466197578753
O           0.52324542032552    0.77485676614145   -1.18794805946485
O           2.13462176475187   -0.53301148101502    0.06537095203450
H           1.55475592425307   -0.73165924483720    0.86059322297556
H          -0.36428542865675    0.65886718644530   -0.69611832834332
O           0.67078887540507   -1.02991931102587    2.13729572377101
H           1.07643241881165   -1.71531103236775    2.67118383820601
O          -1.57894168784825    0.66615286992546    0.23493229840004
H          -2.21514247036650    1.23307220212245   -0.20456394480979
O           1.93662554336861    2.30443615858538    0.64434993928490
H           1.54087113787836    2.00589644761286   -0.18681672881168
H           2.69708171637856    1.73585814294824    0.78915471889533
O          -0.20497048175653    1.65078960448268    2.19503808074917
H           0.55595674998755    2.07203720546483    1.74726661870218
H          -1.19193131312104    1.14650063164144    1.02689958979599
H           0.12455097156607    0.79920903242149    2.51339256192809
O          -1.33242019089818   -2.00533076787173    0.84467923661311
H          -0.15799834185659   -1.44009486626824    1.72939848880062
H          -1.84997906811656   -1.20768751084530    0.66274426509434
H          -0.80701638983017   -2.13664085188500    0.03360333605999
N          -1.86376252564971   -0.22918997083469   -2.56356316153467
H          -1.37019735822873    0.36410968645330   -3.22030034667685
H          -2.56619088683612   -0.73538936357359   -3.09039185223076
H          -1.19110039974419   -0.91193577295120   -2.22863033663261
