    26
        -50.44364542  Gyration_radius:  2.40727452144 Dipole_moment: 2.439
 S           1.81447092981411    0.44483864549688   -0.32315271622049
O           1.74245286586696    0.19904640194792    1.09227592737264
O           3.08406366949160    0.45478754246410   -0.94227416868122
O           0.90879111352079   -0.58197419483976   -1.05775316527662
O           1.10520385423816    1.79617407922833   -0.62944712997613
H           0.27403939635956    1.90063666588462   -0.07619753859981
H           0.15440555232887   -0.90785108641208   -0.45137007627076
O          -1.15038617278058   -1.26639353047809    0.26425551464211
H          -1.29221522888438   -2.19154143031785    0.05630492728412
O          -1.04769107749033    2.09558859471187    0.77052050439710
H          -1.04109065737123    2.94933374917498    1.20698116127625
O          -0.51404312478904    0.94626147703414   -2.88349031292080
H          -0.07733662865976    1.79426919756340   -2.77097771049506
H           0.09396700219609    0.28806310228237   -2.51777199061907
O          -0.53568787072201    0.24012477394460    2.48245839943588
H          -0.93639983190913    1.40319830768790    1.49833370617860
H          -0.91878643926967   -0.53469861975765    2.04647092648543
H           0.40764159210317    0.20769166878513    2.23711635503323
O          -2.48997887766362    0.50766789634183   -1.06144498197703
H          -1.79809014843392   -0.70241887474410   -0.25560346203273
H          -2.28217440646170    1.24322845463549   -0.46907489243537
H          -1.94188005050596    0.65393992293757   -1.85847891458921
N           1.33039327817114   -2.75239327371658    0.86568513820440
H           1.86449709593695   -2.98357483555121    0.03612711905542
H           1.63022194734554   -3.38574550641163    1.59794859123145
H           1.61561221757452   -1.81825913788969    1.14255879949365
