    26
        -50.44348960  Gyration_radius:  2.51250771285 Dipole_moment: 9.029
 S           0.25535657636574   -2.37035313000222    1.00243863054236
O           0.20568415757525   -2.33421662292218   -0.43606705727482
O           1.05180124001480   -3.37884746424916    1.60055671939370
O           0.77478370041771   -0.94449762935455    1.46868969176992
O          -1.15541406741423   -2.37485037308001    1.58259787864075
H          -1.66671477578479   -1.63251807874441    1.08394102616371
H           1.33723798843412   -0.53948232164057    0.76855705957098
O           2.24526860994931    0.47875399951469   -0.21814038006144
H           2.97668534471694    0.80219659695503    0.31070088533868
O          -1.03430003335770    0.52752587221772   -1.91543948249087
H          -1.63939305678364    0.49668448302386   -2.65742061607890
O          -2.23835577925219   -0.42959010317278    0.40074427605579
H          -1.81015571300005   -0.25767126051935   -0.45623216871277
H          -1.93357681495030    0.30555121223544    0.99252993334455
O           0.41513995570875    2.38816906589020   -0.63863724033179
H           1.61091317379206    1.22733238943397   -0.32687243522339
H           0.62636690257794    3.04877205126429   -1.30096414344089
H          -0.23295616002028    1.77916168705927   -1.05569599643681
O           1.10387587453427   -0.87378133488887   -2.43673605709532
H          -0.24359095033255   -0.02968603294283   -2.17107516977374
H           1.80649882352876   -0.44815484316961   -1.93110770195189
H           0.81049270932240   -1.60950584532018   -1.86425767769807
N          -1.01366045485076    1.41811488700488    1.91883321350152
H          -1.38596446563792    1.91114543990726    2.71918857793017
H          -0.54672684268979    2.08619738843576    1.31696944046057
H          -0.31929596286028    0.75354996705235    2.24289879385219
