    26
        -50.44707821  Gyration_radius:  2.51046113336 Dipole_moment: 4.740
 S           1.32771295667921    1.26934351102290    1.60378498627599
O          -0.04090987582213    1.70047238430121    1.46097329450248
O           2.22430790099998    2.14325116436665    2.25940432253540
O           1.35643897827770   -0.10816026804889    2.31510286669723
O           1.84164882705547    0.90663067458230    0.17124353081681
H           1.08937497882811    1.16174745616791   -0.46773071070292
H           0.91037507076028   -0.77983818482892    1.73343101348745
O           0.38331302060914   -1.90689976480084    0.69907451916268
H           0.46342540216059   -2.77907656116480    1.08938656278624
O          -0.18076928188579    1.53309274663602   -1.22403226280409
H          -0.49882412270543    2.12504363984092   -0.53253561468772
O           0.33611611829662   -0.74170024086065   -2.97904817977812
H          -0.50170806528573   -0.94480925841748   -2.54305687030300
H           0.38901269675638    0.21817552048790   -3.01101343773962
O           2.14039998037284   -1.55915638380780   -1.14869826061181
H           1.09349996711800   -1.85035579245838   -0.01961420418818
H           1.59015543152979   -1.35522267813331   -1.93733716107077
H           2.50288720215267   -0.71612266884063   -0.85025095160290
O          -1.56825477382811   -0.66948408344922   -0.82637691624994
H          -2.17762572383854   -0.26476107867557   -0.15898861370505
H          -0.74596665701435    0.71461418074185   -1.13511849028497
H          -0.97238705524998   -1.22361661390056   -0.29670458768433
N          -2.71618056663481    0.62221294415778    1.22221161338107
H          -3.00907981497755    0.07864606725711    2.02467380626577
H          -3.40304132103539    1.35336382146305    1.08464330328656
H          -1.83392127329925    1.07260946639819    1.46657644227158
