    26
        -50.44566006  Gyration_radius:  2.52633386533 Dipole_moment: 5.242
 S           0.66925401816708    1.57755880897872    1.83857468790042
O           0.34684308092461    0.19394133120976    2.10838869983949
O           1.79084635376713    2.11517796795764    2.51548557616730
O           0.86664242089383    1.70614253751682    0.28999338202933
O          -0.57824396343653    2.44970836307614    2.03362144368146
H          -1.32304238933302    1.88966003759517    1.65329455858920
H           1.50610679874547    1.00037491747879   -0.05080223528100
O          -1.79613012376903    0.14150634117153   -1.60709944913552
H          -2.47386232487603    0.51315621946560   -2.17385659649387
O           2.38101502560098   -0.12158586265599   -0.67695664519469
H           3.28931555321391   -0.04453146739699   -0.37954320154148
O          -2.08049730893295    0.62645054170298    1.06420145114391
H          -1.40291804191504    0.05807161557915    1.46191340666415
H          -2.01113522620599    0.49443911177209    0.09662734180452
O           1.29509817614045   -1.93938170050298    0.73744392099141
H           0.45653941958127   -2.23699170212389    0.30134349393299
H           1.99145512259679   -0.92668939005483   -0.18699626848375
H           1.00831820001810   -1.32676353737714    1.43568513886507
O           0.53778628314455    1.11374739509044   -2.45403868047181
H           0.61200228510919    1.87181617755380   -1.86510684322629
H           1.23976712430965    0.50889974191192   -2.17868706690022
H          -0.93281977903310    0.46934693295958   -1.95622550928632
N          -1.09927019313942   -2.50204984079093   -0.39120230184302
H          -1.10895601244088   -3.27330898099284   -1.04639732945300
H          -1.39065585015532   -1.66617297706098   -0.89042714482649
H          -1.79345866897090   -2.69252259206210    0.32076618056257
