    26
        -50.45899725  Gyration_radius:  2.46980678969 Dipole_moment: 5.004
 S          -0.45843044314956   -0.12069855932703   -0.95802297260232
O           0.33907210920010   -0.91082108849398    0.00625144444338
O           0.04461810798220   -0.25604385052227   -2.29737706405226
O          -1.90632746558312   -0.72417731734023   -0.87449749304452
O          -0.60465070215687    1.24936797328573   -0.49017700806139
H          -1.73634093423458    1.24835030808273    0.69707855059253
H          -1.81216011085600   -1.61077631761545   -1.33474141299915
O           1.44488278585488    1.59742518541042    2.67557136653159
H           1.06898118931715    2.37000028730359    3.10209107904576
O          -2.26871017313394    0.95707052675752    1.47764920111797
H          -2.92855185139957    0.36075007459764    1.11396864680009
O           2.54684708000770    0.15130296997178   -1.23518268425379
H           1.90088669209238    0.16248575620726   -1.95503003262199
H           2.17293105371165   -0.47573975607056   -0.60353318803059
O           1.76897686620357    2.30382958287669    0.21796778615348
H           1.67085374518444    1.88245691646791    1.73346518630669
H           2.32054886045881    1.67584910592533   -0.28865804910915
H           0.86496568423055    2.13450107296151   -0.10320776080241
O          -0.20548407313240   -0.26633738735228    2.32912351841396
H           0.50295568228514    0.48247409054530    2.54383680613749
H          -1.09482202620748    0.21307142843706    2.15199228178215
H           0.06829183126562   -0.62347816685556    1.36658911603316
N          -1.10838880705393   -2.82688728316768   -2.17261747884432
H          -1.55600955494414   -3.36378226608526   -2.90428713794097
H          -0.56045448879751   -3.45650536038369   -1.60080046295818
H          -0.47448105714931   -2.15368791568543   -2.59745225804929
