    26
        -50.44566005  Gyration_radius:  2.52641528665 Dipole_moment: 5.241
 S          -1.15457257631966    0.72924577448537   -2.11036497446206
O          -1.84676826971370   -0.02881304322448   -1.09185205047260
O          -1.86391573411028    1.80461591380475   -2.69817599547156
O           0.17331530089996    1.25307617514050   -1.46529780373041
O          -0.59082543982581   -0.22252075049134   -3.17393639503592
H          -0.26136717262221   -1.00943067319985   -2.63987923422341
H          -0.01196619993780    1.71193745723790   -0.58320046615931
O           1.99136626682349   -1.32838713008910    0.31546692824896
H           2.83698330076399   -1.74426384446727    0.14040007780137
O          -0.19049921959015    2.32557978840291    0.83416263388119
H          -0.69243365678655    3.14116298065968    0.78653234850175
O          -0.03156463549082   -1.97278023272946   -1.40062643726996
H           0.72900194429349   -1.75824214009587   -0.82280301557650
H          -0.81031306591068   -1.58122406193152   -0.97571035663551
O           2.40233416628518    1.30581173715837    0.27255903494673
H           2.17822824553214    1.48240754293236   -0.64700884445771
H           1.70620257490287    1.73279929986668    0.78984442289936
H           2.16149604569971   -0.35629139308690    0.34379962785932
O          -1.81346613427293    0.50363042310106    1.56238551506768
H          -2.08136015666767    0.27792853732220    0.65553239948132
H          -1.30141585087455   -0.28350401214698    1.87874869707204
H          -0.81948643152536    1.63070628653447    1.23618619793519
N          -0.33585699042795   -1.68269917096134    2.16250556617917
H          -0.81537638049652   -2.52697528252360    1.87556497638955
H          -0.07836859805488   -1.78900783852765    3.13544944254708
H           0.52062866738109   -1.61476235329222    1.61971772458192
