    26
        -50.45564920  Gyration_radius:  2.41803259414 Dipole_moment: 3.084
 S          -0.48268827062966   -1.49537342120348    0.86768188346239
O          -0.67475986043134   -1.13746325300582   -0.51724849540227
O          -0.11060032768723   -2.84805126271451    1.10643930489716
O           0.52936810277763   -0.51623604042675    1.48931620603379
O          -1.77320947405986   -1.16291808463546    1.65214274353684
H          -2.04776270726812   -0.23319305570818    1.41157352489383
H           1.34789446526465   -0.37393561835869    0.78872140846127
O          -2.45892389911473    1.25143349903101    0.92626622387507
H          -3.41258543763136    1.34686595755391    0.95551796909091
O           0.93392168173182    2.08839501099763   -1.00527314687529
H           1.48097974969031    2.84338944643486   -1.22638761987453
O           2.25354028807064   -0.18480201428119   -0.23467457268964
H           1.82790888479847    0.53369532452542   -0.74391923129456
H           2.12619993647137   -1.05119955471878   -0.72770496418600
O           0.08585685911816    2.22140932270371    1.50409668596872
H          -0.87870391764756    2.15508619757568    1.46684024586914
H           0.38438076268101    1.35074391754149    1.80480913040759
H           0.65569936007451    2.21482563920863   -0.06080116149218
O          -1.61423838646783    1.12181952204564   -1.50879657409578
H          -1.33719799776959    0.19668650075052   -1.35657874115255
H          -2.19878396966033    1.26661808696071   -0.05013931894495
H          -0.77670315488482    1.61044029020569   -1.55624751224103
N           1.67153888941366   -2.56505061896777   -1.19839172040866
H           1.18094833778118   -2.90006318017976   -0.37204019237383
H           2.32030418097543   -3.28291672498397   -1.49780153904085
H           0.96761590439780   -2.45020588635242   -1.91740055644031
