    26
        -50.44565991  Gyration_radius:  2.52594085945 Dipole_moment: 5.239
 S          -2.34540312746486   -0.80665686394933    0.39239384529606
O          -1.33568429124498   -0.88859016762569    1.42425208588604
O          -3.63401137753208   -0.37781229753497    0.79350092993949
O          -1.78645756702637    0.14554241191001   -0.71866289898725
O          -2.40681922629162   -2.13055016353128   -0.38112833553726
H          -1.44158239778061   -2.40376603146146   -0.46355888246486
H          -1.46206995797095    1.01521203948465   -0.31710572648548
O           1.61459988453421   -0.64207572879357   -1.67542385814646
H           1.98352694080884   -0.97748086988928   -2.49399723786892
O          -0.82943893050289    2.32697998713766    0.22777796882797
H          -1.50177562246915    2.88865888416266    0.61746433936546
O           0.12638004357794   -2.41118748325047   -0.22301814606844
H          -0.01791092365295   -1.93870598906935    0.61139063738522
H           0.65186584236066   -1.80867847385643   -0.78794337908175
O           0.32749093413109    1.12048437886683    2.14863436949684
H          -0.29049421313718    0.36997829137259    2.14726705373559
H           1.18565663274136    0.74229455171948    1.82868788709773
H          -0.29867003607766    1.93995458505529    1.00784684874435
O           0.13040874129471    1.48051060494761   -2.31058685043424
H           1.10483674023957    0.16915436268630   -1.91339322224735
H          -0.72651998100725    1.04979021895659   -2.39468419274380
H           0.05422240129091    2.04706121947498   -1.53107220630847
N           2.51911994462849   -0.09134957735368    1.12289286850703
H           2.67123139769200   -0.98803463467446    1.56775085805691
H           3.38295642027632    0.43283973123278    1.18031784951722
H           2.32454171852707   -0.26357296605851    0.14039741449873
