    26
        -50.45899798  Gyration_radius:  2.47088853248 Dipole_moment: 5.006
 S          -0.21354615248696   -0.97153713310197    0.38053586296113
O          -0.92375434342143    0.15514095499359   -0.26484516283222
O          -0.93170875896407   -1.46535187319766    1.52302314705554
O          -0.14293007620723   -2.08856967898851   -0.72162946493876
O           1.17500951532644   -0.61589763514267    0.63149361227169
H           1.97570393377695   -0.71340087024295   -0.79639535769883
H          -1.08713036483364   -2.42562597182378   -0.76846093959391
O           2.16693565770487   -0.65317019530921   -1.76460127154258
H           1.79948869335338   -1.45954913688699   -2.13606961962503
O           1.62262067748978    3.00785879793234   -0.37894769340041
H           2.56998280677009    3.08880792721400   -0.50563912703258
O          -1.24214054008058    1.16443855849858    2.26711097012583
H          -1.19636697491859    0.21689033941892    2.45494117965408
H          -1.44560207412186    1.19984199315895    1.32389917116803
O           1.37046065089358    1.76784229560374    1.86647690405117
H           1.48187574134283    0.85555361914127    1.54328562638888
H           1.49828753869507    2.61138845394096    0.54158835773855
H           0.45569174937216    1.78616205434090    2.21007476391709
O           0.54676831525962    1.30629802866707   -1.88360021508059
H           0.98358322652957    2.07306656159030   -1.30891973430103
H           1.26022484932956    0.57703133874656   -1.98980619287227
H          -0.16001215720794    0.85474979627228   -1.23120883210009
N          -2.66796784544979   -2.59455075679828   -0.38876212437534
H          -2.46020907422496   -2.29447310654796    0.56123441829205
H          -3.15964038696878   -3.47823187788639   -0.35370257368209
H          -3.27562460697403   -1.90471245360782   -0.81107571456277
