    26
        -50.44594623  Gyration_radius:  2.42110244674 Dipole_moment: 3.105
 S           0.59317540587239   -0.92557259534591    1.60940636472479
O           1.81009085657582   -1.03125608880614    0.83861585871160
O           0.51753444276942   -1.63847222227517    2.82716621084340
O           0.32859463969412    0.57704734899846    1.90374273689586
O          -0.59623247641899   -1.33412376498831    0.71031092735342
H          -0.41311709160534   -1.07272110731526   -0.25745061798021
H           0.53906248510537    1.16253983687142    1.11592170891844
O           0.89156556592491    2.15009254595128   -0.07114354020047
H           1.47268424093830    2.84422557929901    0.24479050629234
O          -0.29037364107390   -0.50969937513822   -1.67522341459089
H          -0.69237447313189   -1.15586983942975   -2.25780318166738
O           1.22563192070450   -2.89513890726376   -1.09161615811737
H           1.42541149412246   -3.77692677616192   -0.77523020802175
H           1.54273400452016   -2.28526625815159   -0.40821944927206
O          -1.65419758910975    1.62247519543281   -1.18074224794325
H          -0.88455668538087    0.30121990195695   -1.62095496439450
H          -2.12851019218764    1.36958987976846   -0.35106880377986
H          -0.89255321802613    2.14006029976757   -0.88865310152616
O           2.29543773551016    0.42235754153460   -1.37307938089518
H           2.42623631148439   -0.14779144325250   -0.59511322925639
H           1.61671756152968   -0.03735027201304   -1.88806726576165
H           1.45567000358395    1.55496169755917   -0.65944255785340
N          -2.61823814193199    0.78795863814924    1.21442909989655
H          -2.32933483506883   -0.18467323122639    1.19294147224217
H          -3.58576869494354    0.82308562665944    1.51025566121142
H          -2.05528962946659    1.23924777940438    1.92622757415994
