    26
        -50.44594614  Gyration_radius:  2.42094154221 Dipole_moment: 3.105
 S           0.88791874409278    0.58296976579641    1.63389886862127
O          -0.45677118528893    0.46874481898888    2.14867630158282
O           1.86903503871338    1.16316128706033    2.46925075181926
O           1.37451190621861   -0.83240460865477    1.21605080563332
O           0.83963347752167    1.35904680668696    0.29776521569749
H          -0.03087196313748    1.16166919529808   -0.19404586479688
H           0.65224568589216   -1.36734410788997    0.76882159735557
O          -0.44985491310858   -2.28330306641032    0.09448239632177
H          -0.49537564696099   -3.12639690770778    0.54885957797475
O          -1.20878368190960    0.73436815930414   -1.07236883765970
H          -1.48064930537364    1.51487376186713   -1.55758363654672
O          -1.78282281055660    2.60667589325328    1.04772561703832
H          -1.38154867897580    1.87152535592985    1.53561049963443
H          -1.69928685157248    3.37721407098100    1.61055399632129
O           0.12730568028465   -1.04252094053804   -2.37906732012249
H           1.05915161721782   -0.76870790265912   -2.19435136897797
H          -0.05470043376443   -1.75682031706527   -1.75461921904772
H          -0.76366128553160    0.09031092319715   -1.70546899973279
O          -2.43331039912517   -0.82235140158794    0.85761380019672
H          -1.29317611576620   -1.78508447027872    0.33754095683830
H          -1.91970965929594   -0.38458366945137    1.55900899502894
H          -2.47618001697322   -0.16101238386581    0.15194772778212
N           2.57134153097218   -0.24912112589031   -1.50801272147055
H           3.38295085082220   -0.07995410587322   -2.08894474426252
H           2.83965995272993   -0.89306393750334   -0.77276099232867
H           2.32294845291556    0.62210892700903   -1.05058338289265
