    26
        -50.44594592  Gyration_radius:  2.42109108461 Dipole_moment: 3.091
 S          -0.89161418109225   -0.61568227797214   -1.62048229909214
O           0.47110336201955   -0.90504092348666   -2.00190133070751
O          -1.89735318250048   -0.75406962880105   -2.60344202806509
O          -1.26304977020153   -1.51585413276113   -0.40953459552118
O          -0.94710698939553    0.81576115760082   -1.03923578383681
H          -0.07625884871093    1.03505895678175   -0.55745557414498
H          -0.51010752457068   -1.60042009836168    0.24914131247387
O           0.64811219515104   -1.81375414015474    1.30789207937167
H           0.77836590484107   -2.75089676396707    1.46326782669672
O           1.11062569136666    1.33594508004883    0.36025503445428
H           1.30170981798584    2.26933791829036    0.25638809538540
O           1.58221857848403    1.56132233715998   -2.47548709202514
H           1.45995855801036    1.81384901803147   -3.39132061344777
H           1.25587370563024    0.65170363553312   -2.40054438420488
O           2.51626350492437   -0.96525339541479   -0.25443643514175
H           1.45108495445757   -1.49967584259841    0.78347150303064
H           1.98445894909329   -1.09283530463307   -1.05965619214834
H           2.48455021647411   -0.00977224713002   -0.10234942418143
O          -0.10227466907995    0.62573555825840    2.52267282402916
H           0.70599286461403    1.18035573427173    1.26878342666048
H          -1.04889749055794    0.64813554567860    2.23873154446281
H           0.15847591272190   -0.30236143417678    2.45968865025661
N          -2.58160434776180    0.50571875953266    1.42618495663001
H          -3.42159663058732    0.92077928854382    1.80956196089861
H          -2.76943143644998   -0.47356033137433    1.24474891315952
H          -2.39949916485894    0.93547352107548    0.52505760502081
