    26
        -50.44566005  Gyration_radius:  2.52645388399 Dipole_moment: 5.243
 S          -0.01704205344806    1.47152552352938    2.03789729078780
O          -1.24322753086306    0.99934257502084    1.43398870461756
O           0.04850120307459    1.44708292763939    3.45220669470941
O           1.14774572100965    0.61637422615022    1.43323502524946
O           0.33683396349603    2.85702599695984    1.48114535515019
H           0.09810687536692    2.79077488547064    0.50557787708590
H           0.94109801016142   -0.37135423345747    1.50024626305053
O           0.65328152015930   -1.89879154741533    1.45223760521445
H           0.61698862389108   -2.26254956689516    2.33865283011823
O           0.97582964061570    0.35598114450505   -2.17968434989080
H           1.54857889359026    0.69696481675551   -2.86840364349255
O          -0.51187300408920    2.21101212286887   -0.83895396297527
H          -1.11321814995035    1.66535313181308   -0.30890907346361
H           0.05482053293387    1.58575636939696   -1.33525700919177
O           2.53304324710695   -0.95970069137309   -0.46107452233281
H           1.55299926086855   -0.16799778070205   -1.57384341687552
H           2.69597151022386   -0.25342776703022    0.17264314669051
H           1.99007936231290   -1.60466138016751    0.01194473645440
O          -1.75436311023294   -1.55518312967156    0.69785962158532
H          -0.30994188083039   -1.87423102478863    1.11806901561338
H          -1.81515715553173   -0.65366225085020    1.05654970063925
H          -1.77583205406033   -1.43837909473314   -0.28590731559680
N          -1.68557600957968   -0.99212864845197   -1.94820288073630
H          -0.77495355187399   -0.58197719828527   -2.13614961866912
H          -2.38803522268806   -0.30242894703715   -2.18465860098668
H          -1.80465864157876   -1.78072043897199   -2.57120947259330
