    26
        -50.44566004  Gyration_radius:  2.52634140532 Dipole_moment: 5.243
 S           0.49642569147738   -1.94931797588047    1.50719703597242
O          -0.84415926627914   -1.42707274928236    1.36153067476218
O           0.63368392866381   -3.35857134645309    1.52671801042514
O           1.35058855988195   -1.34444650457828    0.34176300073021
O           1.17849557564566   -1.29968923386992    2.71869450776786
H           0.87544009252843   -0.34073422107828    2.67785190268815
H           0.88926795880322   -1.47676791927501   -0.54851110245535
O           0.19768171221206   -1.52899808127828   -1.94015508865284
H           0.11500832604071   -2.43578172578274   -2.24067095113702
O           0.91088658492548    2.23593236216239   -0.01786961382816
H           1.51431672800835    2.96695287626863    0.12404836063320
O           0.05612455245144    0.94092009257842    2.22836047207258
H          -0.63905461216542    0.35530205689480    1.89057309139116
H           0.40437503779538    1.42436308621387    1.45165924020173
O           2.14921220672204    0.51388486156983   -1.63347148987532
H           2.53284248421060   -0.07101296948676   -0.97189950707243
H           1.47986777998919   -0.01799054917097   -2.08469979159463
H           1.35842400990843    1.62661115375450   -0.65283945892081
O          -2.06647891829422   -0.86004234565859   -0.98633179387265
H          -0.74048540356877   -1.23545467955820   -1.66860375831342
H          -1.86116464691630   -1.16911616459436   -0.08774719087380
H          -2.11119134956422    0.12698000286595   -0.91069870730972
N          -1.99767254680976    1.81434838588171   -0.57853585606782
H          -1.02223075939063    2.06413279478488   -0.44097308546525
H          -2.49971736319772    2.05998481419570    0.26569275892225
H          -2.36048637310678    2.38558398881099   -1.33108168017821
