    26
        -50.44471997  Gyration_radius:  2.54875032073 Dipole_moment: 6.699
 S          -2.09485153343980   -0.27162995601906    1.41462502059906
O          -2.08569431789528   -0.99595502838481    0.16549728246877
O          -3.06525095211147   -0.64236613521448    2.37341793611280
O          -0.65172403253725   -0.34753067504255    2.00639117974073
O          -2.23684302830873    1.24349050216606    1.11464877246615
H          -1.44958375079599    1.52357533835297    0.57740543557054
H          -0.13959949603197   -1.03712003597314    1.44411144121320
O          -0.06036263852578    2.01027167948212   -0.10185047115082
H          -0.10004854674484    2.95466493500214   -0.26340652967116
O           0.38685639367902   -1.97491906537694    0.39036859109075
H          -0.50354332307584   -2.15675414488618    0.05853782589861
O           3.18520509555153    0.04331302365819    0.32188869092338
H           2.58719306696329   -0.13009722501149   -0.42227447751340
H           4.03182719157098    0.29138027654383   -0.05080547786258
O           1.49560997155540    1.48012637078625    1.87978061335917
H           0.92614256716092    0.85055262410078    2.33984820554542
H           2.20578742856655    0.95219044961036    1.46097052086855
H           0.56557390581815    1.88106532642289    0.68269366314191
O           1.06633358164666   -0.14237991743325   -1.46308519585553
H           0.35265973068840   -0.49624988353144   -2.05103761989215
H           0.68415972117661    0.67109531853827   -1.09632154183607
H           0.79323483072946   -1.37701765797577   -0.28016238926158
N          -1.20599115998947   -1.00824184494715   -2.59750662198428
H          -1.28970853678698   -1.94229504793872   -2.97963422796849
H          -1.69960022278599   -0.38066321546511   -3.22014385986399
H          -1.69778192604767   -0.99850600164278   -1.70395677630574
