    26
        -50.44594613  Gyration_radius:  2.42115098246 Dipole_moment: 3.098
 S          -1.35750687530854   -1.38218248820749   -0.21571098666361
O          -1.11399730129912   -1.10013617840067   -1.61120381915368
O          -2.43471648957062   -2.23759283634295    0.10802155760279
O          -0.05904385500908   -1.97544880267089    0.39802877545260
O          -1.53400504489070   -0.04190421308606    0.53421881787901
H          -0.95556328083822    0.68047695790252    0.10755323053809
H           0.76712492374428   -1.51470244484725    0.06202229345637
O           2.11373882504116   -0.86299624990628   -0.45820901934317
H           2.70639832383489   -1.54793094209629   -0.77276728672547
O           0.05009625008059    1.73957315423227   -0.34927432742537
H          -0.39647651550813    2.58447789852042   -0.27695448807441
O          -2.27204053229817    1.35656619762600   -2.01730201998945
H          -3.19002681499459    1.25598708437854   -2.27161152948331
H          -1.90156758248989    0.46146800144902   -1.98464506623312
O           1.79279379706850    1.18089727806360    1.46787037634566
H           2.24023397968604    0.50296298657189    0.94487958634062
H           0.75125491653133    1.67350263177341    0.37007072406764
H           1.24638522872368    0.68259048763437    2.12391217978746
O           1.01872112346311    0.28396931905624   -2.49196278003200
H           1.78862186497398   -0.37189900857944   -1.27770732803399
H           0.23560149868228   -0.29380083623635   -2.47282394794681
H           0.70530975884408    1.11512367718404   -2.10714786902119
N           0.14733022453281   -0.37244092646193    2.96547166239923
H           0.01177362458359   -0.30150520808358    3.96618899581628
H           0.37951750670792   -1.33452714073442    2.74722990615982
H          -0.73995753428271   -0.18052838873916    2.51185237227746
