    26
        -50.44594610  Gyration_radius:  2.4211778074 Dipole_moment: 3.103
 S           0.25790003762729    1.16761271004095    1.53982369528068
O           0.60808779010910    2.10447649547064    0.49774273071736
O           0.47717741790435    1.55708962206018    2.88039534400713
O          -1.24111315864808    0.79200137237534    1.37747861801331
O           0.99658225556210   -0.16403357861043    1.27335758006815
H           1.10225545624804   -0.31467756744133    0.27089779675403
H          -1.50305394048034    0.67426209857107    0.41558833185958
O          -1.99676734681598    0.51574152578745   -1.08112802350218
H          -2.77285302657489    1.05947279628798   -1.22732306321384
O           1.09385892497716   -0.69769225708428   -1.21018117310367
H           1.91852532455367   -1.15745020952332   -1.37470901552067
O           3.06105004543180    1.24587366377749   -0.38927558275527
H           2.23640602798018    1.66041324237127   -0.09309937955835
H           3.76238911738746    1.65535512048737    0.11860031979977
O           0.05153302032401    1.70281092924169   -2.10402142748273
H           0.68515615889018    0.97508619841044   -2.18193946829263
H          -1.24200402013238    0.95915595929824   -1.58327670689900
H           0.29402435361961    2.13672882762784   -1.26717852914516
O          -1.03613650574676   -2.14243768862044   -1.04893085627946
H           0.33473737597413   -1.35827784710095   -1.24236152433141
H          -1.09242836140456   -2.30905598229910   -0.07612935913595
H          -1.64343159856171   -1.40970952931605   -1.21516111437632
N          -1.11154453440733   -2.22588858194849    1.66214452361770
H          -0.20753043577512   -1.81767987244253    1.87698320373280
H          -1.22419716276817   -3.05840621032269    2.22705021421280
H          -1.80862321527053   -1.55077121710785    1.95465287554469
