    26
        -50.44471994  Gyration_radius:  2.54872919743 Dipole_moment: 6.697
 S          -0.13621251507531   -0.30793522228293    2.52040374406277
O           1.17859479886174   -0.45452251110849    1.94176118090132
O          -0.21469702095379   -0.13880813749182    3.92165784810253
O          -0.84854664455225    0.85898032643050    1.76561322580808
O          -1.00240771051275   -1.52768153016713    2.11135858336692
H          -1.07565018869969   -1.53204838168148    1.12061974848481
H          -0.13199701688495    1.31979901171599    1.19311453583528
O           1.07435867286178    1.70371741559848    0.37681104354023
H           1.65511046850841    1.14655815131886    0.91384880201834
O          -1.37046145714008   -1.39989892805291   -0.46772062137659
H          -1.93910608223452   -2.12013627983637   -0.74600862690662
O          -1.09983604957736    1.94450205062709   -2.29200611520057
H          -1.27402815241042    2.07706492904565   -3.22436506631475
H          -0.33939826474378    1.34519825601983   -2.22740530368434
O           0.74358138497859   -0.03148050249211   -1.65830048188726
H           0.02725614717914   -0.59801846843046   -1.32943219807381
H           0.95809969027824    1.21170942177435   -0.46947414493148
H           1.56751469715611   -0.49833273079479   -1.36972692710348
O          -2.67007554851815    0.82133792359070   -0.39046204056188
H          -2.21459897153870    1.36136570553503   -1.06832403709949
H          -1.94584373781085   -0.56749440154865   -0.46329728232024
H          -2.35428375138096    1.13843788694491    0.46510615483256
N           2.70911475582413   -1.32087187424172   -0.36389749779857
H           2.78955883852461   -2.32227753762848   -0.49007495984578
H           2.26574320283044   -1.16353037881357    0.54108983648115
H           3.64821044520507   -0.94563417379775   -0.31088939983450
