    26
        -50.44394643  Gyration_radius:  2.49349082693 Dipole_moment: 6.143
 S          -2.12050627469988   -0.60407559899627    0.15844502560228
O          -1.54194646392111   -0.81446457703631   -1.14975891032682
O          -2.85355838645749   -1.69125477878477    0.70200364543809
O          -0.93359325779887   -0.23016787477379    1.12338583307532
O          -2.91368790867351    0.69099579499404    0.17350532888760
H          -2.23728507769614    1.42854489224645   -0.20102492308353
H          -0.31104193888531   -0.99839912315836    1.17063453521970
O           1.59677120874181    1.67797228462062   -0.00579655706176
H           2.40924748790281    2.10332377411493   -0.28478704733182
O           0.90516303118330   -2.08730876027930    1.37528704384611
H           0.76334976810967   -2.68197579950758    2.11411603847523
O           0.80289112516338   -2.48459794714483   -1.43932222533793
H          -0.13812110866382   -2.28394319549679   -1.52211013192383
H           0.97446649221904   -2.53074327681173   -0.49062332295491
O           1.93123387165033    0.17713825250526    2.20675148719563
H           1.85370959229839    0.72721224660931    1.39577896317095
H           1.22976888743696    0.48701890889180    2.78362860479631
H           1.48264627321965   -1.34600003296735    1.69768860007839
O           0.78520698952035    0.18278724394247   -1.97945205096226
H           1.21230400788892   -0.69084992450338   -2.01001233287623
H          -0.13921187368447   -0.05335199806376   -1.76162699614530
H           1.33742041648910    1.06646428663906   -0.75276117536623
N          -1.21493844885468    2.34026573708685   -0.72667964925902
H          -1.49303513602153    3.31181946657125   -0.68149279832877
H          -1.03670693666377    2.08979217677768   -1.69171195502936
H          -0.35054632971192    2.21379783285711   -0.20406505974700
