    26
        -50.44471980  Gyration_radius:  2.5484861496 Dipole_moment: 6.699
 S           1.44889962464017    0.98883872297089    1.83911890415686
O           2.14866036840393    0.21565490650914    0.84037183670931
O           2.22450385963770    1.82318301031645    2.67622834322654
O           0.33458425881881    1.79838734312193    1.10338853787290
O           0.61281786986505    0.02665619612587    2.72294475531707
H          -0.04768413008507   -0.42900369581482    2.13738762718284
H           0.51761103538028    1.70345457601425    0.09766759777002
O           0.94430452249383    1.28960437678636   -1.28574585698884
H           1.77548342447477    0.92003198906955   -0.95635325891485
O          -1.25772916718468   -0.99372841009646    1.21802624789661
H          -1.81954830756875   -1.56336113416155    1.74663253765572
O          -2.41528039572129    0.83279848464374   -1.92783954216305
H          -3.12640018063458    0.54981950794536   -2.50345563911569
H          -1.72767291051190    0.14947263214512   -1.96880755472267
O          -0.41601525836712   -1.03039689080799   -1.43656001150403
H          -0.73890745553851   -1.13790855463055   -0.52743875872238
H           0.37784173736290    0.50778056435235   -1.48601634971122
H           0.44629688306819   -1.51691870028161   -1.44143588404366
O          -2.41304662957338    1.25897699570961    0.74881882535121
H          -1.66750228674336    1.84071952197574    0.94390069213891
H          -2.50845327558279    1.25301807203898   -0.22546902198510
H          -1.77531802220831   -0.13605653762024    1.07483772872695
N           2.02165123703658   -2.04828024641116   -0.96659456680391
H           2.21067115460735   -1.35510434919937   -0.24260305274628
H           2.76810596199936   -1.98643252006534   -1.64814021381109
H           2.08212607094731   -2.96120586988215   -0.53286391203245
