    26
        -50.45499929  Gyration_radius:  2.50012370995 Dipole_moment: 4.585
 S          -0.82676421129851   -0.48773406806257   -0.54546548133426
O           0.43163415363805   -0.61990915276692   -1.28027962115326
O          -1.99199898787668   -0.50504039415401   -1.55289680810835
O          -1.01948651222394   -1.60888684857957    0.36725936473733
O          -0.85939876522814    0.78025931829500    0.18541979542452
O          -0.66876401378924   -1.37096396023041    2.89169500033734
H          -0.94141277991207   -1.38429652322440    1.92994856961138
H          -1.03456870881471   -2.16609278497697    3.28358241851619
O           1.57342110265607   -2.41880453073227    0.13569256352951
H           0.76097496915749   -2.92176674766700    0.26876709406713
H           1.28728591347527   -1.71546207968635   -0.51263664809239
O           1.31939443048758    1.25105734752533    1.44302998210918
H           0.49501586531703    1.08934644329709    0.89543267780106
H           1.04333725551201    1.82346655679894    2.16276369884353
O          -0.65381881097893    0.67981781461415   -3.37040714125717
H          -0.66294284678898    1.59183983604583   -2.98734859553622
H           0.09990448975428    0.23705606704837   -2.95187016655702
H          -1.61428600835535   -0.04880667689203   -2.36949154384165
O           1.76308818697962   -1.09382781062593    2.24940739588527
H           1.78910673611886   -1.68282894847648    1.36156394331364
H           1.70895193026000   -0.10559398143409    1.92524155821521
H           0.82747345622363   -1.25870823295275    2.64734819041759
N          -0.69276545625264    2.84944020137908   -1.78340098912959
H          -1.47625934074579    3.48993183015583   -1.77496401365554
H           0.14908914421731    3.38777421487469   -1.62194756847995
H          -0.80621120153288    2.20873311043046   -0.99644368566068
