    26
        -50.45859673  Gyration_radius:  2.4521048053 Dipole_moment: 8.071
 S          -1.71259683907926   -0.86866234188100    0.68059184766204
O          -1.58458067077625   -1.03533448730359   -0.76519051748273
O          -1.51691647595745   -2.07926967917356    1.42599595856334
O          -0.51940073785398    0.12777410142505    1.08180481221647
O          -2.90116843448767   -0.09403386193290    1.02783946801294
H          -2.54108281762162    1.26155492679335    0.68765381034495
H           0.24336457916064   -0.47697822466777    1.20771485407784
O           1.13111341968206   -1.93129671101981    1.22632873434640
H           0.27819721371009   -2.30753055665770    1.51067027039101
O           1.84165314802203    0.78620598055049   -1.32468611786931
H           2.52074185340484    1.23312860696284   -1.83172728491606
O          -0.85508481320066    1.29198314041244   -1.68808206318162
H          -1.19344355611673    0.38120862753916   -1.50247806147937
H           0.10812537472401    1.22164183094830   -1.56491306090240
O           2.99354501274742    0.03974706370029    0.99343688422767
H           3.85544932147481   -0.37324083640795    0.91254666293925
H           2.22366021234145    0.60386275466729   -0.43672070969548
H           2.38612912977194   -0.66653820687852    1.27806996258243
O           0.86923129228603   -1.88644631192399   -1.39412536769182
H           1.15904794108467   -2.09733504683817    0.24894336812399
H          -0.09303848193634   -1.73792783646884   -1.30324988288378
H           1.23976839716836   -1.01986641353923   -1.61501849885552
N          -2.10460332033545    2.22296777881264    0.37304094289171
H          -1.54810356951822    1.96280488887227   -0.52552357869704
H          -1.46048879966210    2.52036279713094    1.09961843205112
H          -2.81951840900045    2.92121801698393    0.19745913517074
