    26
        -50.44471910  Gyration_radius:  2.54838545169 Dipole_moment: 6.692
 S          -0.02426493311208   -2.53627178000044    0.16129999326726
O           1.20378809215698   -1.89708528345454    0.57176319790117
O          -0.21180460468555   -3.88585813947344    0.53784282227308
O          -1.20299067595578   -1.63885866950460    0.65474026031995
O          -0.15874357802598   -2.42018308316975   -1.37968916781607
H          -0.19941902487866   -1.45504093706758   -1.61155466047172
H          -0.79590072103624   -0.94009411120594    1.28727813875214
O          -0.48618849279197    0.10352086814608   -1.95275609250521
H          -0.61591483467805    0.20325327462914   -2.89763709609226
O           0.07924148689728    0.02061055512437    2.04746735430480
H           0.84718027288648   -0.56223775829763    1.96597170221141
O          -1.86519774648719    2.51083281513667    0.67106238002904
H          -0.90973240744003    2.39934722183458    0.54440027394907
H          -2.05862691681161    3.43991428586381    0.54297180678426
O          -2.71863930813061    0.32644224974986   -0.68886425770168
H          -1.39861278963121    0.20463305033651   -1.52735417308441
H          -2.61982243180410   -0.43107549465652   -0.09834385443522
H          -2.57615305184416    1.12314968781927   -0.13848004907500
O           0.70119088473191    1.67645526968211    0.01554122186713
H           0.24364596151238    0.75192882395582    1.40690598460281
H           1.64101411162333    1.37125773794811    0.07674368080839
H           0.35061568960353    1.19854838222426   -0.75321148644488
N           3.01567078009951    0.32329684634664    0.12983364692264
H           2.53134247550641   -0.56927980069831    0.22508287969146
H           3.64657952917612    0.41155302505046    0.91701600790123
H           3.58174223403244    0.27124097392611   -0.70803051406042
