    26
        -50.44594619  Gyration_radius:  2.42100101267 Dipole_moment: 3.103
 S           0.12567647365871   -0.18730659946567    1.93566981646494
O           0.66621294142042    1.14638231450412    1.81265988902490
O           0.19172257885093   -0.81352886398786    3.20073749418133
O          -1.35956274384987   -0.15812010627508    1.48003816025438
O           0.80918567099188   -1.09438303717097    0.88683899107057
H           1.03628898824141   -0.55794269259851    0.05062881871538
H          -1.50019339129235    0.42527590540138    0.67520376431286
O           1.19794422370935    0.13755748164465   -1.30280777181328
H           2.00642008820194   -0.20475090010566   -1.68717091461545
O          -1.80218890029066    1.36226045552568   -0.56530077904991
H          -2.51708319381208    1.96453381076642   -0.35192497356505
O           3.15706953439334    0.76650604239523    0.72070115808650
H           2.32793705953106    0.98988846904247    1.17026782499056
H           3.80831042157010    0.63769776477809    1.41126026008512
O           0.43211993059626    2.64099490407737   -0.41261939016454
H           1.02356935582265    2.06892412335735   -0.92264694647397
H          -0.96206818046526    1.92057668135526   -0.59747499999415
H           0.58965347068372    2.37780894912452    0.51112473120288
O          -1.02058584264504   -0.75276589812698   -2.27002832942499
H          -1.55462162219236   -0.02026985987089   -1.93601812423856
H           0.40966016402550   -0.22839710065749   -1.81115237871613
H          -1.21391280392674   -1.51052586362466   -1.66519216350102
N          -1.45514653227078   -2.59395008946104   -0.32504928176103
H          -0.56275143053058   -2.55608358641373    0.15697820741216
H          -1.69386651911628   -3.56699331709444   -0.47071536706715
H          -2.13978975129963   -2.19338898710916    0.30599231457313
