    26
        -50.44394637  Gyration_radius:  2.49348314565 Dipole_moment: 6.141
 S          -1.38290525857440    0.89652738632035    1.47317082602413
O          -0.79921632807746   -0.35701068806109    1.89545290732136
O          -1.35097373121945    1.95345682166967    2.42009982885797
O          -0.62081073052919    1.33304607232985    0.16612729935211
O          -2.77734843514047    0.66004835689642    0.91995335110952
H          -2.65288844358314   -0.10857165543998    0.18815084353490
H           0.33116192542076    1.48468616247679    0.39138370153866
O           0.33679758090336   -1.00085905647295   -2.06186127263077
H           0.75351670333884   -1.60837452102712   -2.67518677991842
O           1.95459320941396    1.73801058141820    0.47746400226768
H           2.18837243726272    2.64800943553766    0.66947785345385
O           2.07741277186873   -0.63354335338991    2.04319640545380
H           2.25192465650776    0.19366186513445    1.57751184944396
H           1.19218279446016   -0.53763102937511    2.41702256901584
O           0.52106478132430   -2.04884164569659    0.31657639634790
H           0.47195591140712   -1.39386044545697   -1.15277759809051
H           1.37334241368243   -1.87978467785664    0.75434651436949
H          -0.09652838246836   -1.53356417409601    0.87407053077733
O           1.49138309765565    1.43341727429760   -2.08461288451047
H           0.74350743444543    2.02382218830400   -2.19863450078899
H           2.00072749848768    1.62152228793419   -0.50806992612756
H           1.10509157947068    0.52964749406720   -2.09977381635611
N          -2.34769380333627   -1.16300348352040   -0.78535721705023
H          -3.13484711563413   -1.39120956794020   -1.37830059930113
H          -2.06542341093829   -1.99046450016225   -0.27406822603490
H          -1.56439916613558   -0.86913713791396   -1.36536206803663
