    26
        -50.45811204  Gyration_radius:  2.55882691145 Dipole_moment: 5.255
 S          -0.86374120852248   -0.74734376757955    0.37337439242467
O          -1.86491362299374    0.12837702942408   -0.18883550515640
O           0.17598603331458    0.12992350547655    1.15334650899592
O          -1.37214797282484   -1.67344269543448    1.38206478142955
O          -0.09025256125028   -1.46729378490516   -0.64821134272844
O           1.09192906225446    1.85398373024948   -2.52779167594577
H           0.83346066943338    2.58125777214255   -3.09634259960744
H           0.43951297612935    1.13156010566881   -2.69510224600435
O          -2.00220536278330    2.77520449272671   -0.22609824664055
H          -2.56368793525954    3.05584654657565    0.49786824746278
H          -2.06056625294794    1.79672980275182   -0.25047907834049
O           2.18021268860849   -1.16042665363289    2.43283654665415
H           1.55994267920726   -0.55802765002033    1.97467589998725
H           2.20869086003521   -0.87162061061436    3.34635337859491
O          -0.80596576549626   -0.00088599167103   -2.74976439875025
H          -0.45065649046142   -0.66909247551501   -2.13406638657539
H          -1.57325054237519    0.34398945279978   -2.27934785914927
O           0.63002565621281    2.32040119066825    0.04367678598073
H           0.38468876843794    1.04093011504534    0.67284203443346
H           0.93223657531005    2.15189279192274   -0.88253516842109
H          -0.27490693349460    2.68850410591686   -0.04535244743623
N           0.73207109324601   -3.02749706447898    1.18701924232068
H           0.81775044229623   -4.03753637110629    1.18285765636191
H           0.70512658560780   -2.59305169696304    0.22444107769253
H          -0.23482720924626   -2.64457148249979    1.50215651602364
H           1.46548777750858   -2.54781039690919    1.75041388636952
