    26
        -50.45859667  Gyration_radius:  2.45202562155 Dipole_moment: 8.075
 S          -0.52640400744469    1.74527880277066   -0.90955824445057
O          -1.33282472455427    0.63488503195856   -1.41052848916853
O          -1.25091888187144    2.66197782690136   -0.07636079414725
O           0.58924932237632    1.05274787785524    0.01419592162479
O           0.27365273389598    2.34913084581967   -1.97187291486096
H           1.33477319736792    1.39550716178682   -2.18893860261727
H           0.14070740699627    0.97201709254617    0.88346120424733
O          -1.10654414004903    1.05918787048178    2.04153264494672
H          -1.34353317246661    1.86588256682747    1.54867184616130
O           0.15998037567401   -2.27625463286677    0.74970077897848
H           0.34793740273524   -3.18800340673327    0.97641881270269
O           0.33797468292493   -1.32032542872341   -1.84242078378862
H          -0.39842188237188   -0.66149772594162   -1.79769208316486
H           0.36931742429429   -1.70833860489969   -0.95008920366612
O           0.61250771822408   -0.83165995290994    2.97862643405692
H           0.09048481509306   -0.03251755366281    2.78450597356760
H           0.24769682696066   -1.19194138955941    3.78921232414055
H           0.42277234415402   -1.73073175975942    1.52487386894058
O          -2.28056047687173   -0.82162606297270    0.61979122069814
H          -1.59840105031487   -1.50823876983778    0.59882873730103
H          -1.70164443261930    0.35937316882880    1.66772867039192
H          -2.14475616866365   -0.30060816339901   -0.19651670424306
N           2.06105497085028    0.56764781114096   -2.22217835081565
H           2.68360803755222    0.67313937197637   -1.42684268106167
H           2.57232131045306    0.55054690652452   -3.09842526427848
H           1.43997035766671   -0.31557887413896   -2.08612432149853
