    26
        -50.44566008  Gyration_radius:  2.526420252 Dipole_moment: 5.241
 S           0.73730835475607    1.70257290383380    1.69543696793266
O          -0.54940920199929    1.04924933081186    1.78827675874254
O           1.46276570130169    1.85748952641604    2.90166802039524
O           1.58744927500445    0.89077621124660    0.66008188054528
O           0.59080652455725    3.03628177463705    0.95062449242898
H          -0.06584254071981    2.82923175577696    0.21655079664162
H           1.57727170400677   -0.09595266517760    0.88186774980641
O           1.51750861046268   -1.63740212346120    1.07687447296679
H           1.95302604666845   -1.89033099406896    1.89280973184639
O          -0.22384744672786    0.17289928896998   -2.39884604022821
H          -0.09587698517678    0.47796105791014   -3.29841366163037
O          -1.14784370470350    2.03443852594834   -0.62878457379133
H          -1.34724612667991    1.50507105158096    0.15883224192681
H          -0.80021826347806    1.40763431449552   -1.29560389432743
O           2.12466811677931   -0.77199070033823   -1.56170449374159
H           1.96437558415282   -1.40177897566599   -0.84607328786579
H           0.63701682297802   -0.21738856803012   -2.11371054659649
H           2.46437525841239    0.01911440148143   -1.13063335476414
O          -0.98370967082139   -1.61258457680079    1.55434282800098
H           0.51757169833582   -1.74305327732949    1.24675741110482
H          -0.99421218543642   -0.68333890679658    1.83976720736825
H          -1.48101495475071   -1.61992784312096    0.69731204710681
N          -2.24652557134433   -1.37414268398385   -0.82740363927448
H          -1.59855092104414   -0.90882368067308   -1.45702060850202
H          -3.06545508706273   -0.78540215380119   -0.73899859977308
H          -2.53439105740842   -2.24060298389075   -1.26400990641743
