    26
        -50.44600002  Gyration_radius:  2.48288916586 Dipole_moment: 3.214
 S           1.31837214622336   -1.52595850421705   -0.71274336993699
O           0.91950651092739   -0.38925286545138   -1.50351935642439
O           2.03639000908919   -2.55662863847081   -1.36012717627548
O           2.12492149360812   -0.98794389963857    0.50943398972851
O           0.06276989359061   -2.14573603624483   -0.05147051706630
H          -0.43589397623119   -1.45384888428304    0.48250283570032
H           2.05803682631307    0.00242433498048    0.55583395012356
O          -1.24010880512798   -0.45068782930407    1.37157195680747
H          -2.00103745969074   -0.90108115946365    1.74277457422610
O           1.97654498227866    1.57048546286458    1.03018600393134
H           2.83188131777206    1.91095012615376    1.29852130938270
O           0.15725602134209    2.19708894767770   -1.04777327793115
H           0.73702612222012    2.32052289108144   -0.28690751243558
H           0.45195101618622    1.35980748137338   -1.43974924621683
O           0.70318837674608    0.43944734697849    3.02426566653250
H           1.20217743833894   -0.36895521456523    3.16295256404691
H           1.48507933839089    1.33024088342653    1.85822830489671
H          -0.09110546614014    0.18083513338867    2.51470478983362
O          -2.18037820152881    1.09074049925166   -0.37464360133131
H          -1.42824349705768    1.67761868947023   -0.61704487465730
H          -2.24197789960005    0.44939875557456   -1.12294859016431
H          -1.63208391687735    0.23447637346193    0.68853953219744
N          -1.83850329876741   -0.82057339962401   -2.26200755179526
H          -2.08797029594371   -0.65581618318074   -3.22926882146548
H          -2.06023079128736   -1.78497346070119   -2.04747178516495
H          -0.82756787478714   -0.72258085052196   -2.18383978651977
