    26
        -50.45859675  Gyration_radius:  2.45204653161 Dipole_moment: 8.070
 S          -0.90826366113034    0.09845141735907    1.82083911474014
O          -1.70440374150739    0.78457196849027    0.80611093634639
O          -1.48118865377231   -1.13702441533247    2.27353198864339
O           0.46811016453547   -0.26629049196294    1.07915033369484
O          -0.46872324698017    1.01618321089098    2.86867505237136
H           0.58884888470379    1.77285119688760    2.24279212649260
H           0.26691045453833   -1.12239769899851    0.64335890220104
O          -0.64476045341380   -2.46631680509906    0.12702746812679
H          -1.07716914673925   -2.35339485552867    0.99316622153859
O           0.56804092901486    0.16097511296454   -2.32714179152146
H           0.89445693915311    0.31821824990195   -3.21408912563704
O          -0.01806238501253    2.21940777496524   -0.57168247364623
H          -0.77894207690104    1.79205584160317   -0.10607235069753
H           0.27862831620746    1.55052097291999   -1.21390892922550
O           1.43028447604361   -2.29336784479234   -1.62580690370588
H           0.96538435200210   -0.68628658981166   -2.02404468766895
H           0.80211737110266   -2.50862614096649   -0.91312374356789
H           1.31803685207340   -2.97715730308874   -2.28897867799231
O          -1.95451818112198   -0.74222775873670   -1.37279336915044
H          -1.24468712307211   -1.99896106797714   -0.50958743305641
H          -2.08375623251816   -0.15615649359930   -0.60073319229035
H          -1.23662336420310   -0.33762224970864   -1.88076835006216
N           1.35905004134125    2.24834215441019    1.61463463414100
H           0.88186401877071    2.31106686300264    0.63841998950678
H           2.15125602156967    1.61475516722656    1.56746685647792
H           1.62810943527401    3.15842976498245    1.97355738394702
