    26
        -50.45564909  Gyration_radius:  2.41833201093 Dipole_moment: 3.082
 S           1.02373146828972   -0.35084563050198    1.43300059610701
O           0.01158437155681    0.66297093342530    1.25860006673400
O           1.03167832605804   -0.99995676330720    2.69936877159610
O           0.90114680333712   -1.36653811354390    0.28228953069313
O           2.41029207319934    0.27658936008490    1.15906587267478
H           2.35444757353898    0.77950909354896    0.29792869170352
H          -0.14951967623532   -1.59222332418586    0.13110825219976
O          -1.41609608634995    0.16422166090327   -2.05227394697793
H          -1.93722156688625   -0.02332135531412   -2.83423803157630
O           2.16738287961042    1.62023386042133   -1.06834311213842
H           2.75250276293929    2.37984720738012   -1.06143536873534
O          -1.51712570853851   -1.69361308980235   -0.04037245969562
H          -1.81713225690594   -1.44064028798165    0.88458648477156
H          -1.69536853754957   -0.94597509608203   -0.64502276907899
O          -0.29104751331107    2.34028615692011   -0.75787848292026
H          -0.83689460521756    1.77419471396106   -1.32728376081982
H          -0.30821214415176    1.88705695902806    0.10819400743037
H           1.22617363420573    1.98223970863165   -1.00155971361446
O           1.10433197300595   -0.59625885299196   -2.37487017256978
H           1.64573005391870    0.18574503095723   -2.19715308826880
H           1.19302127272403   -1.14628695831002   -1.58300067910124
H          -0.49400139194241   -0.14344003086401   -2.25341980684414
N          -1.88813003685809   -1.03900233749243    2.48369412281468
H          -2.49569524945279   -1.49281995336787    3.15510996183458
H          -2.05188786761671   -0.04054453312153    2.52817480461180
H          -0.92369054159041   -1.18142838822287    2.77573022922338
