    26
        -50.46981926  Gyration_radius:  2.46620113889 Dipole_moment: 5.185
 S          -0.70584523971823   -0.58724041339692   -0.36100977309677
O          -0.97139561506198   -0.46952696178187   -1.77273895801476
O          -1.99805063582529   -0.99615173325043    0.38469439057745
O           0.29745057032806   -1.58271679539253   -0.01957696946374
O          -0.29172100793450    0.72677674034416    0.20462268683739
O           2.84454705675833   -0.74306369322914   -0.35079971098211
H           2.06878121948350   -1.33437369738851   -0.35547479369636
H           2.63051610301877   -0.08115917143952   -1.03980820273470
O          -2.15711530145393    2.44011969359989   -0.67201419141559
H          -1.47294666375950    1.87783665131863   -0.26018339555817
H          -1.73319455993225    2.88182474447110   -1.41052048888490
O           1.41435045875829    0.96020704075376   -1.87150724592959
H           0.89803858603035    0.44820508692479   -2.50284328456240
H           0.80630252338098    1.07727842603400   -1.12283059704289
O           0.67199159514121   -1.96507578332207    2.55960392613797
H           0.37017969931945   -1.93346178844529    1.62312742069207
H           1.02241209464366   -2.84678832823593    2.69666676203303
O          -3.52703570739441    0.19228098264210   -1.29652206563159
H          -2.74881876454949   -0.59104434339972   -0.14266582324602
H          -3.32543818617455    1.12127882584566   -1.06735376893756
H          -2.82670406472538   -0.06997413472049   -1.91483994185759
N           1.76949072834580    0.32200948605576    1.77206068792107
H           2.16487982928259    1.07574241624732    2.32260974387494
H           0.89413809591394    0.61704343819130    1.25362106189212
H           2.41827363957235   -0.03696093112712    0.99531896948268
H           1.48691355656682   -0.50306574706414    2.34836356162774
