    26
        -50.44599992  Gyration_radius:  2.48298229074 Dipole_moment: 3.219
 S           0.79402812122369   -0.53518644645826    1.91290974014906
O           1.56183014695309    0.13666846175245    0.89521504426689
O           1.48374889498066   -1.00300868082153    3.05407592750788
O          -0.36542352243967    0.41985887041151    2.33359806910787
O           0.04295440670287   -1.72834285304122    1.27248074592886
H          -0.51996864521098   -1.41969985679599    0.49765765011240
H          -0.41175921549480    1.19658520938816    1.71544750082972
O          -0.88219709067579    2.45853678217963    0.77953379390170
H          -1.08856585357329    3.23633205054925    1.30104578128051
O          -1.45656071398040   -1.01389668215929   -0.68627507484271
H          -1.88200430463986   -1.80019132957091   -1.03324509535557
O           1.06904548694097    1.84818093504579   -1.17988105247884
H           1.47588685635896    1.31070480127784   -0.48194293012105
H           0.35055577894588    2.31229051919661   -0.73414441223953
O          -2.96657962490075    0.89444572599832    0.48704875231694
H          -2.51426918445187    0.20789184986496   -0.04355981093683
H          -3.07664051690961    0.51995775021284    1.36417163576820
H          -1.74377977375122    2.01853077812236    0.55811541957288
O           0.22966067208382   -0.35986533575738   -2.42921394993062
H           0.96789511858387   -0.95512282447810   -2.15402489010717
H          -0.79808771975517   -0.70423367787460   -1.43482695234226
H           0.52701279587869    0.53909617124606   -2.16019186040871
N           2.12425632612504   -1.81994645097244   -1.16004590075912
H           1.88898234861007   -2.72865244569748   -0.78034794979830
H           2.11722043728944   -1.16120477503379   -0.38308085454940
H           3.07275878518621   -1.86972852664116   -1.51051933679691
