    26
        -50.46439131  Gyration_radius:  2.39557072835 Dipole_moment: 3.888
 S           0.71574483455910    1.65132183644465   -0.11495725139315
O           0.00448343976566    0.98258427610017   -1.20338193032587
O           0.28156451555342    3.01808612872965    0.05163518770223
O           0.54399499235062    0.89786470349625    1.14610682713568
O           2.23145169939822    1.61017774684386   -0.45153222576737
H           2.46020227598389    0.64544457756194   -0.49703126289778
H          -0.87601462972503    1.43782943439249    1.64701411104860
O          -1.30745922403173   -2.19939621807133    0.03777008691721
H          -1.68411862109045   -3.03148940633643    0.32558955668711
O           2.69093760963458   -0.98144235304118   -0.69684193591137
H           3.45003828253229   -1.09490206910947   -1.27168679435001
O          -2.42307215080124    0.28036250132947   -0.46880348458824
H          -1.61422810247927    0.57100538077843   -0.94735108843721
H          -2.21960856773920   -0.64259212543878   -0.22979877153092
O           0.88337863880500   -1.70003413376860    1.40915940755782
H           1.67990437933011   -1.83431119343135    0.88343012980761
H           0.77985826381756   -0.72448046453832    1.43166438921176
H          -0.50853982228338   -2.04054731993180    0.60857845774297
O           0.49716581426713   -1.47983210600404   -2.00600863051571
H           0.27234000420640   -0.53068066708349   -1.91464396881363
H           1.88974825045303   -1.25349075589246   -1.23543346170812
H          -0.16906645802568   -1.93123392553973   -1.46481903780020
N          -1.74158099871004    1.98008497550922    1.35848698159184
H          -2.24130172020919    1.31294542154178    0.66943199866536
H          -1.27725297958000    2.73946271518545    0.81179144122656
H          -2.31856974600594    2.31726305024012    2.12163125880267
