    26
        -50.44599992  Gyration_radius:  2.48305030358 Dipole_moment: 3.219
 S          -0.71617829224674   -0.91734618882502   -1.79526576545909
O           0.08260790397225   -1.60916125822237   -0.81551879163230
O          -0.96333102323807   -1.57300985926831   -3.02240095549875
O          -2.06127106628550   -0.52267588209447   -1.11078441435554
O          -0.06671549303022    0.45566588733964   -2.09684816043652
H           0.05758466893363    0.98432182065027   -1.24977609218887
H          -2.01201729834672   -0.69231899759482   -0.13286680705646
O          -2.18091038759831   -0.65648850035713    1.49811067473418
H          -3.03137285557789   -0.99820233594681    1.78005451949341
O           0.24024246354222    1.88751556906088    0.01298528954143
H           0.64998481365881    2.71391674853459   -0.24936181618713
O           0.50504351093819   -1.46641871807677    1.88253626761948
H           0.46678260393259   -1.73392610702428    0.95060775414278
H          -0.40042574343381   -1.20971823248700    2.09360352713473
O           2.03230154421245    0.63205680211620    1.24645716502122
H           0.96282306343090    1.38933108382053    0.57815484514118
H           1.56002421156766   -0.12113743517503    1.66906612314577
H           2.49292012869269    0.22915471940054    0.47151839149070
O          -2.27800447334605    1.91454606298295    0.99084597414384
H          -2.78474299927311    1.95202807235118    0.17628333016098
H          -2.24746834244534    0.33367952926049    1.50470210139254
H          -1.34010967514695    2.00974434816078    0.72855724676607
N           2.77759366568498   -0.58516190157282   -1.05464793796577
H           1.90143706107820   -1.10462263486284   -1.06839231138819
H           3.53309050455034   -1.25886809031053   -1.07264196438360
H           2.82011155580760   -0.05290451185018   -1.91497820342004
