    26
        -50.46439122  Gyration_radius:  2.39559648575 Dipole_moment: 3.886
 S           0.72326580168311    0.04368696268040    1.65095207962259
O           1.33974779762586    0.63426813833665    0.46401247439917
O           0.75732850359679    0.94401503365865    2.77915798123465
O          -0.66804194667862   -0.36169948813750    1.35590077988109
O           1.50188245110814   -1.25833141563881    1.98386185708906
H           1.38754418290574   -1.83888891289951    1.18712618190971
H          -1.45062838013576    1.02093904868216    1.55205585582015
O           1.25839484038526   -2.65404200612775   -0.24836063982779
H           1.99923024301261   -3.26055732375323   -0.30149407210252
O          -0.96942304717992    0.28171752834801   -2.35150360754495
H          -1.54921209331907    0.22626009834116   -3.11163718152115
O          -0.26963397717115    2.37317181196471   -0.68123450563216
H          -0.64392178808031    1.77417089939939   -1.35311949092680
H           0.49468841475832    1.86415044672163   -0.32845454819908
O           1.64909532538717   -0.62509234389090   -1.83147163147477
H           1.43553973466945   -1.93664912825224   -0.92650242087265
H           0.83392211061505   -0.32079982332647   -2.25975071480213
H           1.71957812166053   -0.06367939417814   -1.03177338486910
O          -1.41789271585546   -1.75700701249672   -0.74762332582998
H          -0.71445304687543   -2.41449022736466   -0.79051258598078
H          -1.24027007804877   -1.27922331457983    0.09089723579559
H          -1.20367109166506   -0.48536871494416   -1.76327880633578
N          -1.32925493912048    2.06968737675409    1.65927484792372
H          -2.13174975170051    2.56473980613517    2.03328897722780
H          -1.01271675054912    2.39068892058882    0.67627054114378
H          -0.49934791099535    2.06833301393015    2.29391808386545
