    26
        -50.44599984  Gyration_radius:  2.4831825394 Dipole_moment: 3.224
 S           0.57277581334093    2.05874447602016    0.10971824108255
O          -0.71263048613261    1.56933493434599    0.53959498109064
O           0.75744738255791    3.45861647723761    0.05444214949387
O           1.65418798955663    1.40486270387538    1.02409535863885
O           0.89664878848383    1.46766350048883   -1.28446193451288
H           0.84676071877097    0.46291248048595   -1.26556149955158
H           1.24557034421023    0.69352648849568    1.58490371167255
O           0.93585532017090   -0.64776789077611    2.47653684708430
H           1.33974168262002   -0.60411539793985    3.34517526421355
O           0.83744307316519   -1.09989435431777   -1.30713771158620
H           1.04015096173691   -1.39135616201719   -2.19798471235083
O          -1.73312595537003   -0.76289509921920    1.53784757064999
H          -1.58444696503280    0.15563662976168    1.26273799722662
H          -0.93895052677272   -0.99404920214719    2.03399582653284
O           2.56018815286101   -1.67551516458464    0.69266850686465
H           1.94720346125962   -1.60411558211922   -0.06667990350822
H           3.21216383014727   -0.98126646674731    0.57173800532449
H           1.52718340647123   -1.20604037228771    1.90762452315244
O          -1.61082316911023   -1.57353934712630   -1.00552879976361
H          -0.16455340700104   -1.35087081855801   -1.15672854595613
H          -1.76968825930873   -1.44900588183387   -0.04209185234014
H          -1.97390341939226   -0.75507830304162   -1.42188841572925
N          -2.20977995389589    0.92809990461438   -1.85129704736609
H          -1.79932812453053    1.31714335833097   -1.00404060573990
H          -3.16800890591017    1.25072480435988   -1.90315302292925
H          -1.70808176283817    1.32824427463730   -2.63452491167241
