    26
        -50.46439128  Gyration_radius:  2.3956104776 Dipole_moment: 3.886
 S           0.64361388914860    0.09161888650609    1.68187555512272
O           1.14533822774914    0.88591854947327    0.56155469518655
O           0.43772650737839    0.89679844092725    2.86246078416386
O          -0.60947789788675   -0.59506011093114    1.30045497075464
O           1.68747097466700   -1.02160708617533    1.97076261895054
H           1.73230364690015   -1.55702303466986    1.13635227099558
H          -1.69093588442619    0.55962921229361    1.54301231028690
O           1.83548542409288   -2.27999353608772   -0.34970035495112
H           2.69589587199704   -2.69960333565013   -0.40576440468637
O          -0.93572012796415    0.21761421617538   -2.37194934498372
H          -1.46450526826099    0.08543790007406   -3.15932523130194
O          -0.78113841788591    2.29292727853747   -0.54954456691959
H          -0.98863649646815    1.67260559652729   -1.27236009142147
H           0.06772831345658    1.94583693596366   -0.19358006357263
O           1.80340552297720   -0.11115705241913   -1.78863675031079
H           1.86570621380548   -1.49630670704554   -0.97488340325151
H           0.95419466992437    0.03096164529969   -2.23486831897098
H           1.71955995320628    0.39531758983654   -0.95426309811107
O          -0.95796837569986   -1.97485004285254   -0.91502835221130
H          -0.12260310498955   -2.45294657317395   -0.96541998779604
H          -0.91928439058749   -1.52829545028791   -0.04207732786721
H          -1.00726338715675   -0.62094916568339   -1.84181927356149
N          -1.81480152693067    1.59893540318829    1.71819721681997
H          -1.54968370173930    2.04957295132158    0.77153204047776
H          -1.02636023492641    1.74094078285575    2.38873063161640
H          -2.72005045033676    1.87367670607449    2.08428747556418
