    26
        -50.46893554  Gyration_radius:  2.52596681483 Dipole_moment: 6.813
 S           0.22621706039626   -0.61980208509744   -0.29374644257587
O           0.38391909945819   -1.45433307648277   -1.56610677168095
O           0.54236198001041   -1.46528548353266    0.83822821909414
O           1.14652185982852    0.53056141514858   -0.36578474631731
O          -1.15735828421694   -0.13300988137159   -0.22151417016438
O          -2.82137426204051   -0.72554207970537   -2.22712104818233
H          -3.02312173684573   -1.65993212971313   -2.15893544880517
H          -2.30627791766899   -0.49818364068735   -1.42617363874049
O           2.56303160134024   -1.25816971434461    2.49645599601810
H           1.89949582893342   -1.46544796936463    1.79638458093496
H           2.52142271778728   -1.98021390629942    3.12514430699766
O          -1.08718656404378    0.34758759229519    2.35343325741160
H          -1.23744471096661    0.23625213847940    1.38506476805524
H          -1.06653509700029   -0.55159378454198    2.69101633543096
O          -0.40680037341582    2.08981029661272   -1.86376594374378
H           0.27792461985501    1.63954451747880   -1.33307576818849
H          -1.23339962023517    1.91982218282310   -1.40223609094807
O          -0.52283458382110   -0.05367996285822   -3.46533971946719
H           0.08654751935925   -0.90327539575988   -2.38603905183737
H          -1.46429382905913   -0.27534103701892   -3.31633436206422
H          -0.41921711047658    0.85867967326576   -3.11433803305060
N           1.43651445714372    1.11822187101835    2.12032204333325
H           1.77175894796143    2.03363297681071    2.39941970876750
H           2.02301153186808    0.33867215975974    2.49281458634208
H           0.42811089442204    0.94280669896872    2.38811263007646
H           1.43900599142220    0.98821863409876    1.05411481330022
