    26
        -50.46439135  Gyration_radius:  2.39557449652 Dipole_moment: 3.889
 S           0.23178397643614   -0.49413806587765    1.71870100492057
O           1.32045531871295   -0.15298759524989    0.80426561959529
O           0.38739739097961    0.14645980226686    3.00306522818963
O          -1.07109702681541   -0.13546627215444    1.11765363018248
O           0.22998779662021   -2.03792473984028    1.88918170397020
H           0.06591593333668   -2.39871742866243    0.97925055923882
H          -1.16568152141379    1.42220275217288    1.47208415702798
O          -0.05884355432870   -2.88646511238343   -0.59772844806630
H           0.31533094515181   -3.76740983117451   -0.65636030150920
O          -0.12175817034929    0.97235445419001   -2.36399939778179
H          -0.45753928619616    1.29288252494717   -3.20164190693128
O           1.00878019043790    2.26193844935017   -0.19433993715901
H           1.34768944965463    1.41048559004993    0.16335448886730
H           0.58369459848039    1.99723321036099   -1.03087535874574
O           1.58439203987231   -1.14755856745751   -1.62271887964196
H           0.58487291084057   -2.27773615649829   -1.06792273174683
H           1.12995809087775   -0.44029575294313   -2.10609625368049
H           1.69946774227779   -0.78164176344011   -0.72120470953739
O          -1.82343763141411   -0.74929191586748   -1.32982138859353
H          -0.81418031615713    0.35775273765906   -2.00050101285185
H          -1.50762792841274   -1.65747185754636   -1.39570036003040
H          -1.66261578722548   -0.51340371765062   -0.39090979270558
N          -0.61551680158181    2.26068877965221    1.81920931882809
H           0.04378961829972    2.49139093404341    0.99359627944280
H          -0.06160962640844    1.78733678367265    2.56772943478364
H          -1.17360831175529    3.03978274856312    2.15172905408533
