    26
        -50.46439135  Gyration_radius:  2.39556874758 Dipole_moment: 3.892
 S           0.00393783774129   -0.55262143652694    1.71692963624459
O           1.16992031379503   -0.00676670876536    1.02396827605900
O          -0.16527141869575    0.03048104477951    3.02675383857621
O          -1.21420410637185   -0.35285365114071    0.90223802931673
O           0.20782902919019   -2.08769504193599    1.83815555876949
H           0.26139583635668   -2.41558305424237    0.90294676307327
H          -1.60598704593550    1.15155825360104    1.28048327180641
O           0.48761716380352   -2.82545666159491   -0.68510239540607
H           0.99674253647249   -3.63785765493216   -0.70238892013169
O           0.14121732701061    1.07801533672935   -2.31666913729259
H          -0.08983809634576    1.39385874953796   -3.19071246605367
O           0.67051541174426    2.39062214769848    0.05932233759275
H           1.06827453481886    1.57835544034661    0.44618862253846
H           0.44198888713393    2.11553719641682   -0.84764855573348
O           1.99735218547923   -0.81072677577982   -1.34663206852961
H           1.53035142952585   -0.15032178923015   -1.88156441147281
H           1.89833534434949   -0.48432361633258   -0.42828401087889
H           1.10184761008074   -2.10402673174282   -1.01382359154719
O          -1.42981129704529   -0.92877262678517   -1.65790387168962
H          -1.47142919097949   -0.72611438070828   -0.69861241513683
H          -0.50133526942922    0.34960816703784   -2.10238622834715
H          -0.97232255567780   -1.77627215516684   -1.69373435907098
N          -1.25953653611973    2.04023162176360    1.74587347319187
H          -1.97946698301315    2.70997939511793    1.99502428958691
H          -0.50973591880450    2.41028541321203    1.05996609307515
H          -0.77838705880917    1.61085950819977    2.56761226149175
