    26
        -50.44599992  Gyration_radius:  2.48316319469 Dipole_moment: 3.221
 S           2.03487010997092   -0.65914213928105   -0.06857841923944
O           1.00772752541969   -1.33354023615466    0.68424694863041
O           3.37066993659198   -1.07941483961083    0.12064557856302
O           1.64691200365065   -0.74797834621093   -1.57683287433710
O           1.95507115207553    0.86038455233361    0.21914280140854
H           1.03255008591871    1.21152418545543    0.02405743945914
H           0.72412832930240   -1.10370834325351   -1.67371626746448
O          -0.35980192278345    1.84369003658241   -0.30141181717630
H          -0.33529244983088    2.77983720712854   -0.09481929425335
O          -0.80227465764541   -1.45483382384495   -2.16051361867438
H          -0.81250189981209   -2.03972375250759   -2.92032909996851
O          -1.70079124698232   -1.67042072448588    0.51567332898348
H          -1.72133152250983   -1.68542478505682   -0.44849867617301
H          -0.75800963719963   -1.73556174071453    0.73574963545440
O          -0.68792757900215    1.06768856331012   -2.86813706809527
H          -0.94431228806255   -0.53302634914291   -2.49973557845514
H          -0.67941700473733    1.43505915806997   -1.96121735124616
H           0.20954150767821    1.15663861015027   -3.19730029098315
O          -1.78604707672251    0.81539795254654    1.49236721823984
H          -1.09464256279279    0.70635176374608    2.18890280297285
H          -1.00096888902746    1.42228166857994    0.40645433390572
H          -1.95996254461715   -0.10007048717267    1.17516094802175
N           0.42184718830335    0.32496522227669    2.98104802133098
H           0.72849328070909   -0.37184307344176    2.30422526848792
H           0.35782007852347   -0.13134963682520    3.88250720116350
H           1.15365008354667    1.02221935753762    3.04090882949164
