    26
        -50.45849025  Gyration_radius:  2.40835488824 Dipole_moment: 4.143
 S          -0.82903597591238   -1.30464482581461    0.73414992870790
O          -0.59711387635086   -1.16697582846529   -0.73563550883743
O          -0.46554831703012   -2.61143906321464    1.19672573164035
O          -0.07117128908241   -0.23320190272848    1.40153069356406
O          -2.32216781431303   -1.05216876954200    0.97562559636417
H          -2.47469350996312   -0.03336408204069    0.89833578565189
H           1.39747070713697   -1.05120352271480    1.70947486872401
O           2.03202606703253   -1.78662415762153    1.55108058176554
H           1.47675369011488   -2.56562535697645    1.70948888849262
O           2.69156601351990    0.82493695872153   -1.18342370696906
H           3.43963458023835    0.99231203573130   -0.60725564332148
O          -1.34743019942341    1.07211382139425   -1.88244777814275
H          -1.14915763083191    0.18324562320395   -1.50164809639945
H          -1.25835783067206    0.98080713675351   -2.83230185301954
O           1.84317386830641   -1.54662047777295   -0.95583831815128
H           0.78803821355090   -1.44189441541976   -0.96422488754124
H           2.23228205113950   -0.59867092274855   -1.14318589386192
H           2.05202345464867   -1.73593307660121    0.04850129749488
O           0.58338248819629    1.84653686230953   -0.08966007558369
H          -0.08364448281951    1.79044469554259   -0.79579426501931
H           0.35086789039126    1.12476180860606    0.53764206559343
H           1.91073833594951    1.32014792012476   -0.78631676464264
N          -2.56254294477753    1.49541327538017    0.72494161256113
H          -2.40728011168823    1.66320216594202   -0.26415138428037
H          -1.79903768340692    1.90461162119825    1.24826041211251
H          -3.43077569395911    1.92983244675142    1.00612671310226
