    26
        -50.44088801  Gyration_radius:  2.47764996022 Dipole_moment: 5.525
 S          -1.48302176360360   -0.27588715039745    1.54137351886454
O          -1.97091960560433   -0.40923974513826    0.08903591945484
O          -2.27574621665756   -1.05983733903039    2.41175565850429
O          -0.05850017591807   -0.57107508952904    1.55887567909160
O          -1.65938349468557    1.22139370322900    1.86221382860322
H          -1.05515862492246    1.69015762692446    1.23313252009384
H           0.35588998589356   -2.09868468240215    0.96302478409372
O           0.65800378982522   -2.85073329746145    0.41149861418635
H           0.09672756122971   -3.59452309731908    0.63451461553131
O           1.94189152639406    0.74435902337212   -0.84663224998100
H           2.68756792158522    1.01525087694796   -1.38401387562410
O           0.01335324447929    2.32892883895699    0.19821459808028
H           0.45418181013497    3.09114808811995    0.57898412500199
H           0.71145832306176    1.75381628032129   -0.18028724682113
O           2.61613960182728   -0.73008883003328    1.20827369919783
H           2.29998376748014    0.21635269667686   -0.08162848716293
H           1.75443546217705   -0.57026827497196    1.62708024189049
H           2.59401607991228   -1.65676602008470    0.94643305813294
O          -0.05786727985670   -1.01641764635137   -1.46776850265696
H           0.27184263515814   -1.81652400317194   -1.01546328839177
H          -1.21792189416208   -0.61360316509989   -0.57687909405573
H           0.64144668020305   -0.34380241413789   -1.36485124559463
N          -1.87436067511027    1.56399958940076   -2.30398672297858
H          -1.34958428876985    2.00791042791422   -1.55937490187133
H          -1.35580558302645    0.74213626665961   -2.59051945225147
H          -2.73866878706133    1.23199732660117   -1.89300577334484
