    26
        -50.43598144  Gyration_radius:  2.48555488594 Dipole_moment: 6.881
 S           1.18856631170985   -0.17180895588751    1.82384223358984
O          -0.24675632145749   -0.26252328329931    1.83707934631803
O           1.89259165205337   -0.93381564365186    2.78733246216098
O           1.65721675221787   -0.57801748581265    0.37564788237158
O           1.62931802066110    1.29864238306304    1.85300092491076
H           1.10522743275189    1.74446674018191    1.13595793120221
H           1.21609448285200   -1.45157139842747    0.15898334616659
O           0.37855279159545   -2.72172320092773   -0.29439644357994
H           0.35199480625367   -3.37776653557164    0.40430490715815
O          -0.58976329924294    0.53733867242012   -1.97982130835927
H          -0.99567442474317    0.79787612194309   -2.80823475909231
O           0.38882052052483    2.32727235261523   -0.19193933414125
H           1.03194419684860    2.82276477914801   -0.70332608782428
H          -0.00429227715686    1.66036796307985   -0.79378222855498
O           1.41405429315045   -1.14560813241625   -2.40604240411764
H           2.07267670383675   -0.82669953003263   -1.78038576601761
H           1.08961185494487   -1.97655942081011   -2.03486466533581
H           0.15292448052012   -0.07858000690250   -2.20497805172243
O          -1.72704830695486   -1.23540042757769   -0.16185356566752
H          -0.52398361968745   -2.27277286831540   -0.29707100960454
H          -1.42078927537476   -0.85357936441787    0.68268043478219
H          -1.54045669628580   -0.55419833839974   -0.82810764879831
N          -2.28861874847139    1.97741592575242    1.52529253717331
H          -1.59796370593727    2.51522378317556    1.01485660025237
H          -2.85584332323048    1.48878542360519    0.84221610285540
H          -1.77840431137073    1.27047044746275    2.04360855384977
