    26
        -50.43598123  Gyration_radius:  2.48632803835 Dipole_moment: 6.895
 S           0.28257779946321    0.25545195375542    2.15047861778036
O          -0.80628043165276   -0.51121518314772    1.60714089512928
O           0.80134927640294   -0.15650580010316    3.40171752203930
O           1.42775210331140    0.24866189885627    1.06865741610786
O          -0.07314702667694    1.74895054746258    2.16522733382123
H          -0.40613859754249    1.94993059608011    1.25069163555757
H           1.57340113391645   -0.70637651418370    0.80181508385093
O           1.69026667169138   -2.17518796845388    0.20987519272448
H           1.69578711598655   -2.82592705184143    0.91399397911994
O           0.08562180354674    0.36258977501944   -2.10562705999586
H          -0.01977076973782    0.46864768881812   -3.05249809702332
O          -0.71020990749543    2.23449207280276   -0.31209807420520
H          -0.23487748950427    3.02166359560341   -0.58610879776685
H          -0.46194156797742    1.51808969703581   -0.93389483783910
O           2.62001167860743   -0.11546357699817   -1.49327551048879
H           2.60348681346183   -1.02973947477658   -1.18109528118012
H           1.04871432079764    0.19817172843941   -1.94042988672939
H           2.73559254649685    0.42176066283109   -0.70270944590846
O          -0.71522062634622   -1.88821110126218   -0.68000118368056
H          -0.99244887456983   -1.48308041147612    0.16364313810460
H          -0.61838705051690   -1.14435530425608   -1.29651641439455
H           0.77117678101512   -2.21084101814840   -0.20269669816949
N          -3.34275584081284    0.50968787927287    0.26278320736152
H          -2.84478989310337    1.35114361976296   -0.00334058256373
H          -3.29728956700143   -0.12917883452404   -0.52266691452779
H          -2.81248042174732    0.08684053343090    1.01693475286903
