    26
        -50.45849030  Gyration_radius:  2.40831070924 Dipole_moment: 4.141
 S          -0.29820146114632   -0.97960445280213    1.37104623970977
O          -1.24155668684402   -0.81731821086755    0.22351341606425
O          -0.10869247503039   -2.36257976057923    1.69541001298394
O           0.95775019472179   -0.30274973025102    1.00730758229703
O          -0.91233073380335   -0.23419689382556    2.56206016489146
H          -0.76842964409570    0.77532133056510    2.39623972745835
H           1.81304894728222   -1.60983877818871    0.31438009602957
O           1.85218043894970   -2.50734907763095   -0.08756667368590
H           1.42673564894737   -3.04926426329722    0.59474505506261
O           0.90427709830111   -0.09212067175625   -2.91525269179712
H           1.82631497989026   -0.24729268329229   -3.12828855852939
O          -1.90992768290551    1.62565031434684   -0.46711136588690
H          -1.75918868100408    0.69701869821924   -0.16820511596416
H          -2.60704661847821    1.58423464320131   -1.12348970523979
O           0.80043528716325    1.52071353813807   -0.89719885377720
H           0.89324384563389    0.61466883034888   -2.19909785334998
H          -0.14134207726580    1.76090735609098   -0.85199422097102
H           0.93532528175608    0.88093597869833   -0.16162849178311
O          -0.09632546799734   -2.01882203468507   -1.61823293056265
H          -0.68734732353577   -1.54644648870119   -0.87525100183759
H           0.25931688274078   -1.25872381146154   -2.23542278718296
H           0.73508539163184   -2.34862992728978   -1.08159585455673
N          -0.51322490406416    2.24424506070357    2.00694413606435
H          -1.12684557995230    2.42411473022613    1.21849596692671
H           0.44693019139152    2.31232264353143    1.69432278429559
H          -0.68018486227974    2.93480364052520    2.72587093332723
