    26
        -50.45260125  Gyration_radius:  2.49759607642 Dipole_moment: 5.350
 S          -0.18888225139046    1.90782260926845   -1.27555305277513
O          -1.51077295274416    1.48518540632196   -0.74718135516151
O          -0.13378074919605    3.29007555262917   -1.60444252507071
O           0.84291395182567    1.49562331612186   -0.29371041925761
O           0.06972772056350    1.06543359354678   -2.56448194053742
H           0.06948913868267    0.11401230264328   -2.31709758399622
H           0.15117624411758    1.81535141762148    1.08192293951262
O          -0.58263268780276   -0.77150015228406    2.34990226434467
H          -0.53752556238497   -1.35677693314438    3.10621822133393
O          -0.07157636358266   -1.53378407902928   -1.97894218510423
H          -0.51461706364680   -1.96253277775284   -2.71334552806819
O           2.22620598933199   -2.35004396304084   -0.74628425226584
H           1.41323559324631   -2.14215191212116   -1.24247964016203
H           2.95793094314753   -2.03616709784499   -1.28004535024197
O           1.71543739437311   -0.55637761643934    1.21535294380560
H           1.95880223292117   -1.30297842359723    0.63114329503854
H           1.55278308072321    0.19556916304445    0.61470768422734
H           0.33987513222019   -0.76640400991452    1.93789619746219
O          -1.82222883026043   -1.06386257254515   -0.14959300961224
H          -1.85213840620946   -0.11258345790199   -0.40028609092160
H          -0.75392134366804   -1.46401651815322   -1.24297620284423
H          -1.47714705250318   -1.08981711422626    0.75673109132465
N          -0.75593645318667    1.81461379274807    1.64983599731486
H          -0.87623022598505    2.62738346051338    2.24274638680163
H          -0.81317740208627    0.91014082689147    2.16386729097420
H          -1.40701007651561    1.78778518664858    0.80609483391146
