    26
        -50.45260124  Gyration_radius:  2.4976034299 Dipole_moment: 5.350
 S           0.49327583584765    2.24479840902398    0.14116693541143
O          -0.26082383535898    1.94040485528709   -1.10134125242891
O           0.37572876708897    3.60199181616399    0.54863353331128
O           0.06056509775347    1.27955401334722    1.18018038897535
O           1.99330462849105    1.92851758518664   -0.15498653431297
H           2.06701409652120    0.97836397704669   -0.39620984079033
H          -1.48936805052794    1.18404821302378    0.93220013455439
O          -2.05163342694101   -1.47380509905782   -0.27528994338163
H          -2.53470927053553   -2.30006060543073   -0.25244363017463
O           2.23202139628974   -0.60287328858836   -0.96349071363623
H           2.88717228356715   -0.61262343396804   -1.66358817101775
O           2.09383136723926   -2.29451455944132    1.17776478634750
H           2.22190334596062   -1.74561253732855    0.38238167506293
H           2.70312134096257   -1.96145673473052    1.83858457813781
O          -0.10151216740391   -0.51476524547615   -2.04930487528204
H          -0.80001344154707   -0.95909586547832   -1.54350297890149
H          -0.18158586370001    0.44291577872105   -1.83696353333849
H           1.33717792692949   -0.67923926748438   -1.41685180400525
O          -0.38481461801492   -1.32874620012714    1.67799341003985
H           0.44781429951423   -1.82649422202391    1.54804952809654
H          -0.12997265255966   -0.38773641416826    1.63097811661297
H          -1.39625354769194   -1.50531769066799    0.49301809693821
N          -2.28127895414548    1.15623141144638    0.21277313601625
H          -2.47933722516578    0.15775541533569   -0.00950285205284
H          -1.71765111118327    1.59350851550536   -0.57942435450263
H          -3.10397621137914    1.68425119388727    0.47917615431260
