    26
        -50.43598127  Gyration_radius:  2.4862749928 Dipole_moment: 6.881
 S           0.42592227355144    0.02892374870059    2.14282008957721
O          -0.89851753425821    0.24582893410842    1.62571590392200
O           0.53062402678646   -0.60324309570238    3.40531483214669
O           1.20586213618214   -0.80802773242894    1.05963177781501
O           1.23045194374591    1.33632003091846    2.11185590259809
H           1.11745130044735    1.69383996140050    1.19157185635744
H           0.62809892889332   -1.59212229197804    0.82312767677576
O          -0.34158047060882   -2.72528956229855    0.27818997268428
H          -0.78463923672432   -3.17034202908918    1.00271429277733
O           0.28081727723700    0.14861217605288   -2.11632229815700
H           0.26195242581094    0.27608315824038   -3.06621691322021
O           1.06934367820700    2.07615774368521   -0.37939137863818
H           1.95498615613949    2.29679848800050   -0.67544630412953
H           0.73103324203136    1.37893663200117   -0.98015393782696
O           1.74066586722120   -1.97246095758556   -1.48536551596621
H           1.08719445271385   -2.59761785051474   -1.14517587795105
H           0.84657049915115   -0.64642181043599   -1.94428850369797
H           2.21962288593182   -1.65787708994740   -0.71170873818011
O          -1.85069642732555   -0.83572110198433   -0.62344613254709
H          -1.26695065352604   -0.39396446385210   -1.26128621129795
H          -1.02311623170259   -2.10811889940903   -0.13497519390685
H          -1.74209900509470   -0.33596619047197    0.20802585055227
N          -2.00471037215811    2.72281491116006    0.23873901131215
H          -1.06315111272283    2.95503593230346   -0.05524464084092
H          -2.44154960835808    2.21421206110371   -0.52133832486776
H          -1.91358645156844    2.07360930801745    1.01265280469459
