    26
        -50.45260126  Gyration_radius:  2.4976541801 Dipole_moment: 5.350
 S           2.15360835498946    0.14895072401634    0.80182049751860
O           1.43137741143197   -0.99181958407659    1.41996076229217
O           3.56720579564500   -0.00172748164965    0.83150286989170
O           1.61150528736093    0.33973167539017   -0.56504029017330
O           1.75857125191013    1.42325702614893    1.61292284206981
H           0.78442363599112    1.53948737011715    1.55042107340808
H           1.43077493570822   -1.13876124985653   -1.06873672908777
O          -1.48294940707789   -1.72434833109969   -1.13326703857238
H          -2.24983539479209   -2.01965632084721   -1.62450091791451
O          -0.89495786393264    1.70247510002528    1.60452409759440
H          -1.14751827860821    2.00417446296806    2.47896272905800
O          -1.73167887343763    2.72342950701390   -0.78782623796462
H          -1.18709650995256    3.49059084631809   -0.97171480770068
H          -1.49488482638511    2.42546621457726    0.10969792618449
O          -1.19971683302967   -0.85328026744114    1.51838946103071
H          -1.44108323527074   -1.20280862523448    0.64618985442247
H          -0.22857017381739   -0.98806254774974    1.60435959340042
H          -1.12799049510776    0.72447895591229    1.56806698200066
O          -0.65822948713739    0.55319530926278   -1.99774049694196
H           0.20736048924880    0.61536446701088   -1.55106424738617
H          -1.24153858769977   -0.81489842149440   -1.50126505476516
H          -1.16781059439336    1.32505078992021   -1.67753730549438
N           1.15077737617355   -2.14169449019895   -0.82135180276623
H           1.73621996015268   -2.85306613023856   -1.24300078363198
H           0.13707497723715   -2.25454231447822   -1.03411236051420
H           1.28496107474769   -2.03098668414820    0.23033938406407
