    26
        -50.45260125  Gyration_radius:  2.49767468357 Dipole_moment: 5.350
 S           1.05858870248088   -1.70016376731557   -1.13681018962614
O           1.32827607564523   -0.38495677139796   -1.77126900142001
O           2.04799467188011   -2.67752060613998   -1.43294025800177
O           0.87491834915332   -1.47149412393099    0.31665127309463
O          -0.32057321345679   -2.18782307305199   -1.68264294559305
H          -1.00261596404985   -1.52445778655903   -1.43539302442976
H           1.98085532695829   -0.39977598851224    0.63487542386515
O          -2.18572356162791   -0.34925994609014   -1.17230117378963
H          -2.76060873386261   -0.31330800249247   -1.93889546069088
O           0.61413081558482    2.19421838096767    1.12465253386182
H           0.46366786038799    2.94733227007208    1.69632685746195
O          -2.95211754784235   -0.47830022811031    1.44721623842667
H          -2.77659947458960   -0.42634308520694    0.48965078627412
H          -3.14745460158660   -1.39723406109391    1.63801954852649
O          -0.44078559069008    1.53226614177041   -1.38899707152642
H          -0.13909015589641    1.90357330453968   -0.54502412110800
H           0.24817394351163    0.88410109293257   -1.66088307113120
H          -1.58988426372855    0.45921163974010   -1.23148684193205
O          -0.39006291037886    0.05471008738637    2.13870402230873
H           0.00637436679725   -0.62459643949077    1.56073199966269
H           0.16317205014345    1.40573296586417    1.56714626940452
H          -1.35700615315925   -0.04239198770834    2.02236298961519
N           2.50402789115759    0.47313945274840    0.30367713749667
H           2.00189213840026    1.30838791591569    0.67221632261419
H           2.27532689045681    0.34587966722522   -0.72973865355903
H           3.49512306829960    0.46907292794771    0.51415043021702
