    26
        -50.45260125  Gyration_radius:  2.49761673281 Dipole_moment: 5.350
 S          -0.48807412146013    1.33942673373297   -1.80843392003067
O          -1.01073801089323   -0.03638647583895   -2.00618394628060
O          -1.17068835323301    2.31443971648791   -2.58639067705173
O          -0.51097306108436    1.62672482158368   -0.35394533799231
O           1.01576252868812    1.31308367394083   -2.22749105205001
H           1.48471804833684    0.66567569138567   -1.65534314576240
H          -1.87336419971717    0.98459085962183    0.09861582032474
O           2.30842081058577   -0.54010759800633   -0.80843247640552
H           2.92885865281306   -0.96570975242794   -1.40288908380887
O          -1.24503183151352   -1.46511314774351    1.66125504109208
H          -1.34195230873862   -1.97119844077894    2.46816710653422
O           2.82163856967378    0.38601672722675    1.71042497843878
H           2.73374755389374    0.02251925201752    0.81010716378360
H           3.21798911490316    1.25373547638005    1.61555252629742
O           0.15221071905093    0.65541426940521    2.06803950722009
H          -0.65887767531982   -0.67437381559257    1.88930500970588
H           1.11977991182440    0.51183857844277    2.10174189708718
H          -0.00535988802446    1.14016650575844    1.23566133945763
O           0.18230061720201   -1.98891169573114   -0.69622928875303
H          -0.29465370789825   -1.36318194196722   -1.28756249478466
H           1.53991039470609   -1.18043941753338   -0.70109340869949
H          -0.28323694230084   -1.95895445579266    0.15439689955652
N          -2.56062815354895    0.17163536229642   -0.01152962922188
H          -2.31937206768060   -0.55217598780302    0.69804505800476
H          -2.20660900672865   -0.13502631248014   -0.96919669211243
H          -3.53577758352442    0.44631136333845    0.00340878545080
