    26
        -50.44120203  Gyration_radius:  2.81455171496 Dipole_moment: 8.306
 S           2.75748349081510    1.75990936988266    0.80447821577686
O           2.22791154002065    1.80703165623923   -0.53716408446934
O           3.80123912928554    2.65040411257457    1.13822761781147
O           1.55596389589945    1.96324872430537    1.78152917446515
O           3.21753058772595    0.30847816386903    1.10812887215589
H           2.51558416109271   -0.34202106869251    0.83506924933204
H           0.70190667856244    1.77882291030508    1.31216974504045
O           1.37923028592137   -1.42877060592746    0.47173140658113
H           1.70281679225702   -2.30129311638420    0.70174542104486
O          -0.68928895026100    1.52949759496854    0.48153147661321
H          -0.93898181391300    2.39807744609137    0.16206222785707
O          -2.61715820685496   -1.95539054449814    0.20674839450560
H          -3.54408551023192   -1.86978073709455    0.43172225266260
H          -2.49927337394402   -1.53777262321229   -0.68279886888825
O           0.40308203949263    0.19539770900420   -1.51480816183573
H          -0.38408989466735    1.01250858860965   -0.31331941835399
H           1.14897131356048    0.82444600210205   -1.42490422259363
H           0.70997043241692   -0.60140490897798   -1.05421312106759
O          -0.74952908252403   -0.93465257748453    1.83991857985623
H          -0.89835305519459    0.00790044326436    1.69798532958251
H          -1.44605124603632   -1.39302963331117    1.31943728110166
H           0.57726083175485   -1.26204288578358    1.06347854217227
N          -2.30831411701092   -0.76563751319486   -2.21605451677735
H          -1.36877706524513   -0.37980971614277   -2.17175272495940
H          -2.93600139465730   -0.01536324978751   -2.47757276917924
H          -2.31904745838536   -1.44875356106121   -2.96337587859537
