    26
        -50.45260126  Gyration_radius:  2.49765454063 Dipole_moment: 5.350
 S          -2.26840583477303   -0.31976911992217    0.23511510826643
O          -1.94963532988938    1.11663259729320    0.03444202491302
O          -3.60186977365851   -0.65309528690709   -0.12906946738766
O          -1.24583382028753   -1.11469676324949   -0.48670982407847
O          -2.06430850083241   -0.61712714822880    1.75423280040431
H          -1.12856338441962   -0.42238322019010    1.98417061115921
H          -1.05244933270601   -0.29480848013524   -1.81469811570752
O           1.60134588831025    1.03772482917935   -1.67778890520886
H           2.45878763283839    1.20137619676549   -2.07103324812977
O           0.42108848758746    0.03953018304846    2.46873695866517
H           0.36632847459102    0.43706689548369    3.33961387824615
O           2.18091384842707   -1.88446496472862    1.65210263283799
H           1.82739501888527   -2.72834224795765    1.93819382379807
H           1.60098390276313   -1.19908250202197    2.03202672933139
O           1.39990308783216   -1.40366921005576   -0.89445496982003
H           0.44283339062715   -1.45791922365283   -0.71084845483271
H           1.61044504708227    0.07757031307691   -1.36341217830540
H           1.83618895338047   -1.60014281294553   -0.04062918383998
O           0.46076784258556    1.93301018584514    0.72367802046209
H           0.54512641118713    0.79983188908088    1.82168929784966
H           0.96612945796766    1.73222899279162   -0.07974249009657
H          -0.48272431255402    1.76671059328485    0.49815572943862
N          -0.99173021024780    0.67199646441744   -2.26966541691071
H          -1.45442307321532    0.73848075909605   -3.16861383688043
H           0.01103994205960    0.95385492473157   -2.29386745834685
H          -1.48933379369096    1.18948613588966   -1.48162407582362
