    26
        -50.45807526  Gyration_radius:  2.42078333506 Dipole_moment: 7.666
 S          -0.91614596592907    0.16304230555914    1.99339399781294
O           0.47035532044416   -0.25234294153156    2.15011903821025
O          -1.67286963465695    0.28625666602272    3.19017024647961
O          -0.88016729162037    1.57184147537420    1.25024901157444
O          -1.59298432492334   -0.69984144889545    0.97826624995319
H          -0.86594235693049   -1.76406054200517   -0.00249643095121
H           0.06434450217765    1.87879275083966    1.32244337126127
O          -0.45499040580125   -2.32868331834619   -0.70785220493373
H          -0.90254741956803   -3.17437590781478   -0.66685206571275
O           2.05592625758947    0.65697515878823   -1.10739009411335
H           2.90358445343407    0.72113225677343   -1.54913978758347
O           1.65921503657733    1.96054621186324    1.31805688629647
H           1.88906118254572    1.67226406134842    0.41652329079009
H           1.62084827847989    1.14651800225938    1.84989774544210
O           1.94078399340862   -1.48310787821582    0.33761705528322
H           2.08737770414179   -0.18782274597757   -0.55882621394628
H           1.47648620657224   -1.11252286514920    1.12087017462441
H           1.26999775381300   -2.03059658944733   -0.09933407260413
O          -0.16872717219139   -0.18172535103298   -2.39648993455536
H          -1.35443767870658    0.49946372991291   -1.67934354678095
H           0.65149962865401    0.21845492375803   -2.03672504852750
H          -0.21070459410518   -1.07051416560474   -1.99911360983219
N          -2.11590829251059    0.82276171586304   -0.98696760508159
H          -3.04496562733632    0.79142297227098   -1.39253453916734
H          -1.89497644384383    1.74672197477951   -0.61674729729657
H          -2.01411310971002    0.14939955860791   -0.12779461664496
