    26
        -50.44120194  Gyration_radius:  2.8130999657 Dipole_moment: 8.284
 S          -0.84972486993081   -1.01295271553763    3.09514994352723
O          -1.56970194769889    0.06254950909978    2.45676405449051
O          -1.35887493704810   -1.52421744196468    4.30889196066918
O          -0.71961224863518   -2.16477971807132    2.04818770257090
O           0.62130228871805   -0.56781484624240    3.31385455985481
H           0.98897144143399   -0.16604765119359    2.48086801497581
H          -0.88093423363866   -1.81273532878899    1.13505101027984
O           1.64568659729086    0.43112463384401    1.13356918463589
H           2.55991346648284    0.65862488218190    1.31054472631110
O          -1.21545110829978   -1.20116799808949   -0.34845234034576
H          -2.15851788245942   -1.33426293552117   -0.45755000191593
O           1.49940963718079    0.22653945614568   -2.89949728898010
H           0.73935187418574    0.85140848870995   -2.79268766415315
H           1.41309702114731   -0.16784626078992   -3.76786811660003
O           1.56976063201637   -1.34915318362654   -0.72977565314921
H           0.65564556996889   -1.65720141737464   -0.71594022625137
H           1.65224089974716   -0.80538478121810   -1.54457737728359
H           1.66841353956283   -0.29935671718041    0.43562822743642
O          -0.80807059781147    1.32708946302093    0.28759811704829
H          -1.08121080376369   -0.22268376931514   -0.22008427965732
H          -1.23272261338741    1.09829222875530    1.14047702273205
H           0.14149848228829    1.31474151563117    0.48584250777580
N          -0.61913792608829    1.90244487521052   -2.61059685079165
H          -1.47802348390385    1.69622806604658   -3.10570846838039
H          -0.36369364915246    2.85850144321352   -2.82478167927298
H          -0.81961514861649    1.85806018303271   -1.61490710555161
