    26
        -50.44120205  Gyration_radius:  2.81476072839 Dipole_moment: 8.303
 S          -2.72144116252731    1.64665509149210   -1.10981033946561
O          -1.90776526228174    0.88207938134358   -2.02413591493365
O          -3.94499095963779    2.16698193023485   -1.58523342309707
O          -2.97944806428056    0.74658714864631    0.14035973616800
O          -1.86808334782891    2.81025624075370   -0.53679662711712
H          -0.97945561413473    2.47498965121231   -0.23954238226214
H          -2.31367445590366    0.01212557083454    0.17258832169111
O           0.44631219205859    1.96575930917560    0.31921801888715
H           0.91935557704796    2.71548385682622    0.68398045101551
O          -1.23647920099876   -1.22362049843174    0.15153706954075
H          -1.68611399364649   -1.92822389143947   -0.31777659712792
O           2.31929327842953   -1.21387389503992    1.96554117187263
H           2.44230118820327   -1.99045369149921    2.51230314963600
H           2.39709721779415   -1.51152785134529    1.02486701259898
O           0.47427617669752   -0.08699612399199   -1.50402210739969
H          -0.31940036321952    0.25573729464128   -1.96521385240150
H           0.77660792866723    0.66216577959596   -0.96688112718365
H          -0.52393864107683   -0.88751597681668   -0.45796267843001
O           0.06544838860502    0.22519730457173    2.18292477569810
H          -0.56642364366282   -0.39142519019017    1.79407977149834
H           0.92337503629041   -0.25407310366922    2.20326332964756
H           0.27983074275401    1.33617104589776    1.09186035541326
N           2.49386858074688   -2.05955557238503   -0.61053211401980
H           3.41888684261931   -1.89245801728112   -0.98684642960825
H           1.85057075919326   -1.44639319162945   -1.10422834929190
H           2.23999081028184   -3.01407258228348   -0.83354121106993
