    26
        -50.44120217  Gyration_radius:  2.81407477055 Dipole_moment: 8.298
 S           1.35082575888847    3.05765089606528    0.40907861972804
O           2.17637640639727    1.94333171866387    0.00977354448252
O           1.92290198102523    4.34845799352410    0.38999593546982
O           0.07439110896825    3.03082996197626   -0.49067719247196
O           0.78774448829373    2.77758135925759    1.82850739805798
H           0.41945423705652    1.85442688786140    1.87930195334084
H          -0.03196552160343    2.13441818554494   -0.90164536973905
O          -0.13384618087010    0.65977862655321   -1.61040203345934
H           0.32893527463224    0.75964570788541   -2.44392545900798
O          -0.25073126754135    0.39049481139147    1.98824031164993
H          -0.60748840764758    0.27993796385643    2.87107774644213
O          -2.15904258764038   -2.45552263419287   -0.15273832969173
H          -2.74981810057989   -2.83412082912316   -0.80451846927348
H          -1.24044337457951   -2.71382135175306   -0.41562779438444
O          -2.16905024376704    0.19257769128228    0.27696355064143
H          -1.04105356357318    0.35282561146189    1.35962099406843
H          -1.77266063392664    0.49851015526321   -0.54764260400780
H          -2.26475869006279   -0.78071691985381    0.17839812475718
O           1.46687208800523   -0.58158773707278    0.07969683449784
H           1.99112144612294    0.24617356155686    0.06923838215037
H           0.94889896796328   -0.52232634883571    0.89785243724185
H           0.44629630267347    0.09431530742029   -1.03084337135492
N           0.35689841033137   -3.13953392407361   -0.91634589268636
H           0.54661797059416   -3.29427656131421   -1.89888566731567
H           0.68524265856001   -3.95191524256115   -0.40899456469554
H           0.91828147238385   -2.34713491088323   -0.61549907439734
