    26
        -50.44388466  Gyration_radius:  2.44589045206 Dipole_moment: 3.518
 S          -0.92445147811830   -0.88387152308167    0.99138206035349
O          -0.14279407261919    0.03426245983612    1.77448174823644
O          -2.04942079697747   -1.47882460595649    1.60869986440184
O          -1.39936736450013   -0.20341809674932   -0.32835478380503
O           0.06122560453224   -1.96232947211755    0.46056285889940
H           0.96792661803485   -1.48245975370270    0.47849916111607
H          -0.74421559330421   -0.25136360659490   -1.07663393466550
O           2.24114390378560   -0.66891144447719    0.47989854361754
H           2.23256631261854   -0.33386243194380    1.38103737407455
O           0.18912455595933   -0.43683676997018   -2.38141933816222
H          -0.33540122244824   -0.65981596206745   -3.15263189885314
O          -0.10353029112702    2.50096174894196    0.68734398976036
H          -1.04677899409753    2.70233856644954    0.67286533033641
H          -0.05071533322594    1.70220683845281    1.23800323944672
O           1.79209827829017   -2.44308608136512   -1.74359901601687
H           2.46618594822819   -2.01928643840538   -1.19935521200721
H           1.23305858720741   -2.93865132846186   -1.13565124424495
H           0.81322542765448   -1.19361302885303   -2.22794358407766
O           1.71140000298644    1.41761550330231   -0.96105779799666
H           1.10324738399802    1.96679453725653   -0.42082793539933
H           2.10768737937909    0.15079101549589   -0.09560169505428
H           1.18967950412657    1.08166814178955   -1.69915146270961
N          -2.71354916416631    1.60039252912484    1.58205830692644
H          -2.84654054106554    0.96756787568375    0.80216544358128
H          -3.61911261980476    1.73053812402566    2.01892531562420
H          -2.13269202536710    1.10119317337996    2.24630466660941
