    26
        -50.46196459  Gyration_radius:  2.40483602685 Dipole_moment: 9.496
 S          -1.74389003208918   -0.28114974259431    0.90743004570196
O          -1.62209026944250    0.47007859728737   -0.34134790804727
O          -2.82992600786925   -1.21246790396825    0.92103740143573
O          -0.38969081152617   -1.14244194439964    0.99965985052752
O          -1.63077825949786    0.61536110435349    2.05523625010286
H          -0.42024311833899    1.39895787224553    1.82846846005508
H          -0.63386985279467   -1.95627644015651    0.44323432482016
O          -1.30943059687335   -2.93096338895977   -0.52297729231941
H          -2.18216509830431   -2.64430303605609   -0.20842072672242
O           1.85438072128438    0.22613063498157   -1.66880482642651
H           2.68407052261722    0.16460213509046   -2.14390502803755
O           0.13190040381195    2.30586124930580   -0.97903139630734
H          -0.67850475165289    1.75516653564158   -0.89297402545757
H           0.76583028485927    1.72546611579264   -1.43109875018960
O           2.09596989833757   -0.31410052079931    1.03015488900400
H           2.03444570896749    0.00538398878277   -0.73634698400204
H           1.17707054942876   -0.67977041274258    1.03113290696266
H           2.64979206473236   -0.99017220462481    1.42446867206226
O          -0.69704659583874   -1.04805305170785   -2.30593171987791
H          -1.16983631381635   -0.43913810869186   -1.70230840676961
H           0.21861251202677   -0.74362430562370   -2.29274701211874
H          -1.13789407378247   -2.43969225974959   -1.35924951217267
N           0.50472717799869    1.92956799633716    1.57434276831412
H           1.28949921762729    1.27205771197346    1.64275129975792
H           0.63335457815706    2.72961966568508    2.18420433827692
H           0.40571215197785    2.22389971259194    0.54302239145335
