    26
        -50.46196460  Gyration_radius:  2.40480904862 Dipole_moment: 9.497
 S          -1.87882633310698   -0.04227106802351    0.64230878691320
O          -1.46634063265802   -0.66456056454249   -0.61519115670141
O          -2.74190326274619   -0.85946108486116    1.43871938255534
O          -0.51487772950021    0.14316264061285    1.47288758597812
O          -2.30338418869822    1.33668380390037    0.41393387441345
H          -1.22879498919092    1.96014540604211   -0.35249711936238
H          -0.42394790170497   -0.76850306434428    1.91118367021161
O          -0.56999309490058   -2.24540796018774    2.28239494014997
H          -1.53162697079228   -2.18465433762585    2.16262799152250
O           2.24579003133088   -0.55761471033211   -0.95848647537232
H           3.18529101470565   -0.66098808465425   -1.11518605990347
O           0.08297222359153    0.30808180507624   -2.48804938213467
H          -0.61027034735435   -0.17449531896021   -1.98413167857186
H           0.91597999129588   -0.08667477993972   -2.18241470374007
O           0.29555184937972   -2.60188019030614   -0.21223852220570
H          -0.20843793243624   -2.63413357140301    1.45276366311603
H          -0.44358392425835   -2.01166766724311   -0.46527649778805
H           1.09228308640705   -2.11214471366669   -0.45029320951609
O           1.64941775725314    1.46919573461119    0.82242152583878
H           0.85479746511420    0.96178342597270    1.12106661973613
H           2.13890757087842    1.68585347109162    1.61785700847094
H           2.13499035162836    0.16281238807448   -0.31097031461506
N          -0.36967971360332    2.34010780847949   -0.91751222519399
H           0.44079720442196    2.38753883158789   -0.28998998198266
H          -0.58332553918043    3.24577701538413   -1.32085234555584
H          -0.16178596586477    1.60331477522047   -1.67507538626702
