    26
        -50.46196460  Gyration_radius:  2.40490156007 Dipole_moment: 9.499
 S          -1.69095976087002   -1.02640264131399    0.17432494732848
O          -1.48689779477225   -0.02117025707294   -0.86802633590963
O          -2.28609706098606   -2.23898768554579   -0.29721129339884
O          -0.21038445534278   -1.39847034101328    0.67810746543161
O          -2.28831781242607   -0.41791633548176    1.36042480098757
H          -1.46390726308164    0.74685931476567    1.66617417433002
H           0.05900238932606   -2.10344631714391   -0.00155107809860
O           2.04315411116669    1.17909352482705   -0.84296940320916
H           2.93510752583316    1.49985655575129   -0.98231389402271
O           0.13954902837181   -3.00605778219142   -1.23397552524028
H          -0.82730891910300   -3.09521596633639   -1.23689019283676
O          -0.46457419617479    2.37885447977039   -0.64684246229526
H           0.44876992624949    2.15060475543460   -0.88534139731949
H          -0.98675523709983    1.58979971994987   -0.91528336500845
O           0.50328271560016   -0.68293429015338   -2.48727092403272
H           0.35902471148956   -2.31436888174033   -1.89996994513969
H          -0.32686830554988   -0.40974713911914   -2.04586050111018
H           1.18102560083444   -0.10813096980474   -2.11106593001160
O           1.62877316706075    0.16660487314780    1.69448763089660
H           0.96777410422922   -0.46939747751383    1.32473825685947
H           2.24812544500048   -0.36108396799332    2.20158361271331
H           1.99727588618625    0.82913754865076    0.06588945612654
N          -0.78252001698108    1.59204837566011    1.81916991458657
H          -0.66379907149108    2.05736572822522    0.85519606899173
H           0.13148505748286    1.22775449930671    2.11033855010083
H          -1.16395978495119    2.23535066691377    2.50413737930114
