    26
        -50.47072345  Gyration_radius:  2.4865259798 Dipole_moment: 3.609
 S           0.72414320925355   -0.99606574244044   -0.03581718283850
O          -0.22953645527300   -0.91037189565579   -1.13639212008011
O           1.85030914054647   -0.09450193733678   -0.23681138973362
O           0.06553517536251   -0.71230902667947    1.24492420448041
O           1.28180868351954   -2.43423341083309    0.02641486723463
O          -1.81483620952349   -2.48892839158294    1.77359612031538
H          -1.14984123544318   -1.77834412529202    1.63727104350051
H          -1.53173148509566   -2.97305039902270    2.55109638962469
O           1.60964230154016    2.60334381969906    0.92813792076421
H           0.67874133197400    2.47410765049961    1.18162970129971
H           2.00351302516799    1.72251424599588    0.97572316566471
O          -0.96285362146688    1.66727588880495    1.20146012631400
H          -0.58563222491373    0.74972913704290    1.24045755983437
H          -1.61420034336694    1.71429695386143    1.90342704131996
O          -1.24291494054367    1.49173087733842   -1.52933928662841
H          -1.39813929499866    1.72558515183466   -0.59797597672758
H          -1.03291214617255    0.53148243562137   -1.50311031303522
O          -0.99221046258356   -3.42567415224373   -0.61018416960802
H          -1.48786377998136   -3.26332725198598    0.21981733429502
H          -1.07386662737107   -2.60592666647273   -1.12183454050145
H           0.48440254737177   -2.99313562985670   -0.21060077576114
N           1.29866722541913    2.02666716326528   -1.62431103159880
H           1.48602427521421    2.61815720373452   -0.77849852778018
H           1.61052187914868    1.06833195309602   -1.29155488305771
H           0.23536987295475    1.94539806104726   -1.75223470834247
H           1.78786015922060    2.33724807759344   -2.45529055905606
