    26
        -50.46196459  Gyration_radius:  2.40492552802 Dipole_moment: 9.500
 S          -0.07183425104298   -1.50192468745639    1.29775826997169
O           1.18969111849386   -0.92110457105808    0.83952319040847
O          -0.13017605188202   -1.72259598045695    2.71012797437302
O          -1.18171210742526   -0.39114048110532    0.95297651849584
O          -0.46090803038959   -2.61874438983996    0.44033410671312
H          -0.38261437907942   -2.11429894489135   -0.92712828662489
H          -1.11998865550910    0.21083528385912    1.76854015620293
O          -0.66682095880733    0.91336015565000    3.04987827080322
H          -0.36837010861259    0.06449760713537    3.41470753028264
O           0.54785963320657    2.10658083106424   -1.24107118355816
H           0.50916907182171    2.93560759509817   -1.71977078928987
O           1.91014778134096   -0.29771076339912   -1.59878616203484
H           1.89085682597420   -0.57857899177345   -0.65636798280309
H           1.65216026421400    0.63820549258575   -1.57205990754718
O          -1.80309856290049    0.66055765683436   -1.36490694058023
H          -0.32408714976167    1.67883073336762   -1.32677760156172
H          -1.61482891837076    0.29037486751771   -0.46728151515056
H          -2.69140747080455    1.01873344794990   -1.32218489127565
O           1.39087688638522    1.63245884892010    1.51710532165446
H           0.13327586526358    1.35986842964051    2.68861632655931
H           1.48651971784093    0.67438463410310    1.33914273460179
H           1.16076718950612    2.01820550748742    0.66300947389731
N          -0.30115707661179   -1.64323275376393   -1.91365349015127
H          -0.36157559271269   -2.34173930873482   -2.64640818750633
H           0.64797377401217   -1.13391718262481   -1.92294214318889
H          -1.04071882414817   -0.93751305610343   -2.00238080269433
