    26
        -50.44388462  Gyration_radius:  2.44584672925 Dipole_moment: 3.520
 S          -0.08605409384692    1.52376997498704    0.53641732826188
O          -0.23307857772648    1.52243854738410   -0.89383614753114
O          -0.49328165104880    2.68372771078959    1.23584988416650
O          -0.82300999012899    0.29894165157253    1.15846688221544
O           1.40270303517748    1.18575683469201    0.82809755090776
H           1.70105871904976    0.68331293219395   -0.01559460126374
H          -0.28222508328158   -0.53647185660286    1.18740280738397
O           0.58612223999398   -1.87802046687365    1.42397064335795
H           0.42140266551059   -2.24811394237401    2.29317824090791
O           2.02160932951058   -0.09992558337276   -1.26639577476416
H           1.72235353632906    0.51754942856782   -1.93986513476461
O          -1.88370833528887   -0.43882687003400   -1.72900988637151
H          -1.31552556772629    0.33969447740656   -1.60624874341327
H          -2.69011222043927   -0.20653245270231   -1.25355122954788
O           3.09587849403551   -1.06274316587876    1.22754579195432
H           3.23829419683294   -1.02069848687993    0.27459593045966
H           3.01597327518930   -0.15001039510069    1.52461039074875
H           1.55164395953321   -1.65000193367364    1.38535009133944
O           0.26145708301832   -1.99887113827339   -1.34210366642792
H           1.38332197590430   -0.88003573429716   -1.33730279996069
H           0.17722571506170   -2.29329551590628   -0.42770088381307
H          -0.58830746327537   -1.56458653644296   -1.57131415058250
N          -3.13848728125271    1.60577998810835   -0.09218723361168
H          -2.41494206235783    2.16525167424899   -0.52948426178248
H          -2.73793719154270    1.26507683955485    0.77374659259624
H          -3.89237469724420    2.23683402891467    0.15536240953571
