    26
        -50.44382147  Gyration_radius:  2.44567540565 Dipole_moment: 3.515
 S           1.07665990796980    1.04057316671585   -0.64032127964217
O           0.72486562708256    1.49844285941935    0.67575563021852
O           2.27172605114772    1.54552564353676   -1.20580905330353
O           1.14942521302072   -0.51479405449418   -0.67562094577299
O          -0.14846341368874    1.32968077773912   -1.55303173189837
H          -0.92913693318704    1.36288497182615   -0.88863763494715
H           0.27520748089638   -0.96645893861031   -0.82196779884010
O          -1.06512293769204   -1.77375649122625   -1.23743450718140
H          -0.87073027920312   -2.47198206863670   -1.86534059445696
O          -2.01742315524506    1.32110520323846    0.16130950572287
H          -1.67529185297868    1.95747869865624    0.79542800699300
O           0.66380990501057   -0.49644183384185    2.48648842500232
H           0.67811728091759    0.35993789123540    2.02933770239001
H           1.55408130598831   -0.84123368576628    2.32963150189036
O          -1.71489691968053   -0.95950363818379    1.34987365970507
H          -1.96775870497972    0.43420841672557    0.64396010007551
H          -1.53365452696349   -1.58943253830585    0.64303526029195
H          -0.89025791913899   -0.89275093625958    1.88145394456742
O          -2.58020432764539    0.08116076580913   -2.36370928184338
H          -1.91105383857863    0.67491828970431   -2.72059344466859
H          -1.68768712641704   -1.14572760056304   -1.68823111355193
H          -2.95979038088271    0.53616325542249   -1.60246493351599
N           3.23967856617303   -0.22942868439197    1.28283724714983
H           3.25021915679621   -0.84725350518389    0.48004206767593
H           4.20365366040417   -0.06608359028281    1.55099093043841
H           2.86402816085956    0.65276761571950    0.95301834750540
