    26
        -50.46847869  Gyration_radius:  2.44282806683 Dipole_moment: 7.223
 S          -0.34448979945346    0.92794887337113    0.79090478075905
O           0.55984368708135    1.56081461830572   -0.16609858101188
O          -1.02963452001707   -0.21332827003848    0.13466882526024
O           0.35278827373345    0.48281822548820    1.97525887718303
O          -1.43174121949344    1.93094800814020    1.20213593045476
O           0.85202175188551   -1.82379086830169    3.12632649254086
H           0.73990317893838   -0.88597784602776    2.84646042325802
H           0.19384787366914   -1.97405251243990    3.80685641716883
O           0.07691881338351   -0.60247261646497   -2.32473730097958
H           1.00672033478547   -0.42821091299324   -2.15656845937283
H          -0.38518033005585   -0.43939582830207   -1.48332931040756
O          -0.70215560783000    2.07956725707204   -2.48825951264139
H          -0.52743048517335    1.20611513178418   -2.87198719334622
H          -0.13087619943195    2.11636264968201   -1.69894877116000
O           2.39208625000473   -0.26724289493977   -0.27224809744094
H           3.07355824894291   -0.03376364556648    0.36107208714834
H           1.75103781709379    0.49092828890753   -0.25414728480950
O          -2.79995325982802    1.68822102374886   -0.93817622371466
H          -2.76336703093758    0.72622534004903   -0.91341757746566
H          -2.04962211666478    1.96453615864080    0.40391940325328
H          -2.14358028351003    1.96294963789228   -1.63056229054279
N           0.66431016358081   -2.13837208488660    0.50348645199423
H          -0.16183560060637   -1.47701291699345    0.36343060360341
H           1.48664768388413   -1.56875223078363    0.16912086654799
H           0.76303078956036   -2.28567616453273    1.53742285928998
H           0.55715157641254   -2.99938643085636   -0.02258344560375
