    26
        -50.46196457  Gyration_radius:  2.40483541273 Dipole_moment: 9.499
 S           0.59239224363890    0.91683264449930    1.65888047002982
O           0.24453557072659    1.64802351428978    0.44103313927004
O           0.03912111181218    1.48002432906796    2.85208648073368
O          -0.07950981249508   -0.53154196072133    1.47169230783672
O           2.01980098714096    0.60654551298679    1.67759802215663
H           2.30804514938775   -0.01212232183643    0.38719650945724
H          -1.02359155279455   -0.35656141853870    1.80267260330617
O          -2.32850279839913    0.30447578009048    2.25074729470303
H          -1.82528014042995    0.97418295614817    2.74170680770913
O          -1.17266704591305   -0.67740862396495   -2.10716065500561
H          -1.62307859752214   -1.16048479358125   -2.80119024434721
O           0.94420826924359    1.13381941018418   -2.02853246744909
H           0.15835726925003    0.62169456780312   -2.28006685000171
H           0.68691270799101    1.56914214797151   -1.18487556956839
O           0.30343500317561   -2.29817440038134   -0.42529845951106
H          -0.69583581935719   -1.32834790232933   -1.55989114631510
H           0.12821224491334   -1.67134720410334    0.31933494556114
H           0.04704688799904   -3.16531506557615   -0.10659290105779
O          -2.28914403003677    1.26730096312077   -0.23346071056810
H          -2.14739521123474    0.61553069732497   -0.93086107935377
H          -2.57833233960761    0.71609663372595    1.39154278470962
H          -1.39205401381179    1.58768232510499   -0.00700706592959
N           2.42338923203408   -0.47118166080304   -0.60153806569850
H           1.93192773965623   -1.37190257596068   -0.60447460391326
H           3.40560647648595   -0.58077155788662   -0.82913201472524
H           1.92240047815363    0.18380800337228   -1.29440949202711
