    26
        -50.44382122  Gyration_radius:  2.44580796496 Dipole_moment: 3.515
 S          -0.17866274467086    0.27565514522316    1.59603932261745
O          -1.47975753993954    0.24345466937279    0.98612153425024
O          -0.11394372048905    0.09801439486831    2.99849890001457
O           0.75942920252001   -0.77758308536984    0.93524866220534
O           0.48105849017311    1.61539723283312    1.16349129551368
H          -0.01294465737031    1.84739976709963    0.29499482990880
H           1.21041666758326   -0.46577833823740    0.10517452631386
O          -0.74926703077007    2.06198928004148   -1.00848728781825
H          -1.66047908389313    1.99707378488802   -0.70903436267826
O           2.12330772848799    0.01813978415535   -1.14118786095789
H           3.02413393091045   -0.29962264198666   -1.05708023174437
O          -1.75691996033253   -1.78367893514706   -0.76798389513597
H          -1.89040721775985   -1.04005564963660   -0.15811135588711
H          -1.50388239829732   -2.50689176639306   -0.17765136810038
O          -0.38406277264520   -0.12054221843505   -2.35352853906344
H          -0.91620772871687   -0.81658605928686   -1.90728635141492
H          -0.61837130700595    1.24765894939896   -1.59296333505895
H           0.54101652716762   -0.35116386558256   -2.21077520755602
O           2.05832194628311    2.65828590547085   -0.96919315919098
H           2.16596449825676    1.00982824100458   -1.13826118433293
H           1.20870595266709    2.87737330947180   -1.37001116689253
H           1.94285644042485    2.77860509258030   -0.02057141999729
N          -1.16090381509402   -2.71377880252963    1.86904631137275
H          -0.15054702774737   -2.76577182256848    1.92194751655779
H          -1.53277945670708   -3.32407855241159    2.58812457242490
H          -1.40607492300394   -1.76334379879625    2.12343922467107
