    26
        -50.47072322  Gyration_radius:  2.48568221486 Dipole_moment: 3.607
 S           0.27051583356254    1.01684517856368   -0.64653198302268
O           0.40903169760360    2.08174322830670   -1.75565060621308
O           1.05299111990584   -0.15558138921224   -1.02214420435708
O           0.75684667022146    1.60526925318517    0.59382135957003
O          -1.15183022715895    0.67465169709244   -0.52574913588145
O          -2.14779163596817   -0.16317176885777   -2.82267972430821
H          -2.80568957630279    0.47920279355904   -3.09408787322922
H          -1.84566994602952    0.11596758091998   -1.93012978062641
O           1.07149164771910   -2.08733130146465    0.77202802956728
H           1.13379000996245   -1.52304308338923   -0.03081464068356
H           0.12803285442697   -2.06032467237043    1.00761842928747
O          -1.47109795279189   -1.16591604149769    1.27214534418330
H          -2.32875296331585   -1.56869949467512    1.12568348916133
H          -1.37505146989430   -0.46702518909805    0.57358855849274
O          -0.50473134064340    0.66598141747533    3.08409209356672
H          -1.00965843832850   -0.03509805623962    2.63583112572522
H          -0.41178644972361    1.36492004838934    2.42355164702670
O           0.39382855310092    0.28669515813097   -3.58282016239778
H           0.84104866447465   -0.24047452490815   -2.90273521708785
H          -0.54599024100782    0.01010208173777   -3.54813458538919
H           0.42088099389865    1.53068377631413   -2.59250408015344
N           1.86945359228845   -0.08253130393611    2.22037144371339
H           1.69186360666407   -1.02227077707539    1.73118396256514
H           1.66812917104949    0.65442403608878    1.48404009835847
H           1.09455206749750    0.08461980433623    2.90749520742849
H           2.79559377870054    0.00036154852621    2.62253122468800
