    26
        -50.47455455  Gyration_radius:  2.4260151615 Dipole_moment: 3.601
 S          -1.52359678718097   -0.13204087274704    0.13569910958996
O          -0.91164019247771    1.17793509431989    0.38396643640535
O          -1.20037786987793   -0.62577542585752   -1.18914009596724
O          -1.14947478967710   -1.06185139044915    1.19272863990238
O          -3.07030974965668    0.06318712228380    0.17159611948911
H          -3.23533449914778    0.35588799384948    1.08940359202574
H          -0.16253545375752   -2.24690868801173    0.43284876194306
O           0.88999332972261    2.61482488800869   -0.94509045139453
H           0.10931800315270    2.24868607834673   -0.47902135380353
O           0.38312124245291   -2.77161734021058   -0.18483254029605
H          -0.13987698150834   -2.80594452136086   -0.98929783336128
O          -2.50607766874454    0.70874786312212    2.67081158897658
H          -1.94929870511458    1.45385901871995    2.42385139263727
H          -1.96798790266336   -0.08419334530987    2.51023665608370
O           1.37980403897398    0.32469504569545    1.46557957033031
H           0.54708775822529    0.68017335178561    1.09744483175461
H           1.10400127803409   -0.37539619231908    2.06267060019567
H           1.56273800392613    2.72412892597076   -0.26819682577149
O           2.46333741625147   -1.12518386015340   -0.54303214027621
H           1.75462509241574   -0.31566273366269   -1.62885540519752
H           2.30413039879354   -0.56486397750193    0.24445795659514
H           1.85492681467666   -1.88864943343759   -0.41873749933971
N           1.05403863732971    0.27151023242846   -2.20950335743476
H           1.10503651485574    1.26926610481125   -1.88566357054208
H           0.09926907984812   -0.08164489429056   -1.93185460470001
H           1.20508300110787    0.18683095595225   -3.20806957785617
