    26
        -50.44382147  Gyration_radius:  2.44565042424 Dipole_moment: 3.518
 S          -0.94346513213031   -1.31855839200129   -0.15219111876495
O          -1.25082577386430   -0.67722297214750    1.09675386298031
O          -1.90045467733030   -2.22307016467058   -0.67074905685065
O          -0.64229977369711   -0.25680433929170   -1.25111501982271
O           0.44167378429755   -2.00133761542639    0.02874053746251
H           0.86903120767459   -1.46019636588411    0.78813949629366
H           0.29669006682431    0.07149139190434   -1.26258569935344
O           1.83722587428804    0.52311743199574   -1.47120350048087
H           2.06972564566132    0.55222736776754   -2.40107027583090
O           1.43565320077804   -0.55765409817533    1.86159645093554
H           0.73773379041220   -0.60772634795026    2.52080415373951
O          -1.45686290639426    1.99970364015790    0.86742051973523
H          -2.11107641773184    2.01905755130043    0.15488263289526
H          -1.48353354206922    1.07507732558440    1.16249618055270
O           3.21042404009238   -1.37399287071656   -0.23851390282734
H           2.42713256461812   -0.15363070662652   -1.04776422753094
H           3.14578325779773   -1.11405834079049    0.68822045949714
H           2.62058173865467   -2.12804989643043   -0.34395273088597
O           1.21449387940148    1.83933380838913    0.90762367654997
H           1.47273698630633    1.76613163963243   -0.01823950734994
H           0.25547526681232    2.05698639999164    0.91286446584172
H           1.40213865753046    0.39762195448030    1.53228777830257
N          -3.33988276722530    0.63867966896686   -0.79377787314852
H          -4.34083695670548    0.58546144748640   -0.94585926470075
H          -3.07647275608469   -0.16329544075094   -0.23200571555331
H          -2.89078925790820    0.51070794319839   -1.69280234167504
