    26
        -50.45829583  Gyration_radius:  2.56839362923 Dipole_moment: 2.964
 S          -1.37807535979452    1.26342189305605    1.33206202029513
O          -0.80973937169142    1.55753264945395    0.01087927436028
O          -2.58629139244787    0.47601964763702    1.21749037617965
O          -0.38857295082493    0.71551852655683    2.23419485490275
O          -1.79852280780166    2.66394546211719    1.94833066233150
H          -0.99156975052602    2.99594483414414    2.33352400533614
H           0.18399635381499   -0.69560292694710    1.74621337506823
O           0.55146586792635   -1.56418564474546    1.44032305321238
H           0.65420380530579   -2.09626027707588    2.23091252380928
O           1.49820671419789   -1.08829223609871   -2.32212882352569
H           2.17397880316667   -1.58137103707346   -2.78865879589572
O           1.72999692312702    2.26815046674745    0.19335074983388
H           0.78338906494163    2.01264619802503    0.16663666187180
H           1.90132796988228    2.73559807881460   -0.62644431092890
O           2.56216995913895   -0.31655363211535   -0.04824593387800
H           1.94179384943764   -0.73092125238598   -1.50512482264597
H           2.38887153794558    0.63190678444892    0.11363055792535
H           1.98497036501205   -0.79095375416000    0.57063564602825
O          -0.40686204095877   -2.35817548741103   -0.98959413376408
H          -0.07968744182119   -2.22148836225058   -0.08010968529663
H          -1.44789273458521   -1.28727372233299   -1.13669674318633
H           0.30590723106855   -1.99226563498838   -1.56911366845749
N          -2.07006774531977   -0.39095157566579   -1.15939704645833
H          -1.43915346868563    0.43782991129893   -1.11870535717024
H          -2.56526532298316   -0.27572014711170   -0.23932116302370
H          -2.69857806750986   -0.36849877191443   -1.95464328691547
