    26
        -50.44382131  Gyration_radius:  2.44577594122 Dipole_moment: 3.518
 S           1.16112123359555   -1.14224089852996    0.01985704730160
O          -0.08284464593217   -1.75872990542645   -0.35201338564560
O           2.35129142013254   -1.84305053091659   -0.28852096222195
O           1.26965876383820    0.28309889595140   -0.59876791626251
O           1.06497003601513   -0.83060112197875    1.54002175344344
H           0.05360466430284   -0.77624233962205    1.70203293113741
H           0.82998619124015    0.99905916537667   -0.06610838871429
O           0.30413216243740    2.24622443182763    0.82210047754212
H           0.92479800998050    2.97684065232674    0.79913869324474
O          -1.44879535934807   -0.64754112891797    1.82039738784253
H          -1.72831037785227   -1.48386778866170    1.43752982962852
O          -1.46807860208003   -0.30445095660302   -2.14896090608436
H          -0.77229989128511   -0.22039912105941   -2.81569881334859
H          -1.12431592580327   -0.99623091102677   -1.56074510260040
O           0.15070264161124    1.24503973243040    3.26720137878522
H           0.23522530591235    1.95614267363825    1.76885123913995
H          -0.68649238081411    0.76614840686653    3.24870441225510
H           0.84069382097958    0.57377679188216    3.23586355579269
O          -2.11482378536031    1.10404734673521    0.03331539148003
H          -1.44181211706420    1.79168826088860    0.09257637767074
H          -1.99462163196561    0.67162300396393   -0.84158667483540
H          -1.76727029923095    0.04953970223907    1.16116908445694
N           1.10255799728110   -1.06878830591771   -3.13757938049641
H           1.08066965047090   -1.70393998511611   -2.34748103646026
H           1.73476243869296   -0.32090668689241   -2.87815033864183
H           1.52549069023989   -1.56623939346258   -3.91314665439938
