    26
        -50.47455450  Gyration_radius:  2.42588828874 Dipole_moment: 3.596
 S          -1.05074792623021    1.10315682306817   -0.19165505194099
O           0.19924207996641    1.44186537207696    0.49758377047116
O          -0.79800248270888    0.56465090334802   -1.51436342969614
O          -1.84858393357784    0.21144659851224    0.63911510016139
O          -1.84271675939568    2.43065437412815   -0.39660569406067
H          -2.01898181600670    2.72711859445068    0.51791849843620
H          -1.88846298030128   -1.28673511192566   -0.20268246607523
O          -1.75114887829893   -2.03031698030166   -0.82147772963665
H          -1.83259589456576   -1.63065282197940   -1.69072435884505
O           2.75728058453240    0.95740413781399   -0.04997440389195
H           1.87310608950860    1.33022244366456    0.14983802311191
O          -1.82747421504247    2.35258485685590    2.24424199156626
H          -0.86766035868521    2.38832152994670    2.30545716742486
H          -2.03913838818568    1.43952125509300    1.98819056905964
O           0.59599147740595   -0.89650146555723    1.73134470471411
H           0.47697851435385   -0.01862751876098    1.31842841751324
H          -0.27412112447006   -1.13017766282785    2.06466136197712
H           3.02138187915798    0.48822021811067    0.74558032861954
O           0.81670559590444   -2.61556606822352   -0.34431127684710
H          -0.14816711938893   -2.62066677858818   -0.53827413544990
H           1.33566948373715   -1.53816609671991   -1.29616186951404
H           0.88288395504900   -2.15419790603217    0.51711696516795
N           1.53481155441692   -0.61447385990517   -1.82527937979672
H           0.61605467754521   -0.09561278018675   -1.83288918349268
H           1.88186433950119   -0.76797676597721   -2.76502107751107
H           2.19583164576910   -0.03549526009609   -1.25005683144219
