    26
        -50.46196462  Gyration_radius:  2.40484001653 Dipole_moment: 9.498
 S           0.06640283350895   -1.34342194896692    1.46087038752727
O          -0.77441463186078   -1.51414631951010    0.27653117544411
O           0.79329696274309   -2.51882779454862    1.83099799655703
O           1.15292192068483   -0.23796390538074    1.03448376062685
O          -0.67708248978296   -0.66782736889604    2.52143056656195
H          -1.25901602154759    0.51942123604212    1.90324959411120
H           1.85213771643037   -0.81394010210542    0.57524662871483
O           2.59342968190504   -1.95875683155250   -0.11749740439094
H           2.19406638330363   -2.59517591956613    0.49752266864680
O          -0.06965891327244    1.17144845970347   -2.21276155037210
H           0.08471801856842    1.75780090057664   -2.95457646615894
O          -2.33512301532600    0.23779309338203   -0.88472329332808
H          -1.92661064764741   -0.58489348971969   -0.53299163664261
H          -1.70251052907391    0.54964638852983   -1.55230784321286
O           0.77275830477977    2.21734336045105    0.20232654606622
H           1.57004585131728    2.72877032793273    0.35059679738059
H           0.27154988669346    1.61460994046630   -1.41416187867991
H           0.97300760097159    1.30226517471574    0.51950426961954
O           0.67422310992971   -1.64146255880563   -1.93814330478711
H           0.05690950870675   -1.74734221026076   -1.18551740587134
H           0.53524907174736   -0.73647205431441   -2.24307428989443
H           2.05726350046693   -1.99289317559407   -0.94305459775699
N          -1.64508088028747    1.38549477977374    1.35305346778478
H          -2.34543095742738    1.87125140873235    1.90269586462165
H          -2.05441305010342    0.99729714066947    0.43563441862638
H          -0.85863922542213    1.99998145823588    1.11466551880392
