    26
        -50.45829562  Gyration_radius:  2.56874827078 Dipole_moment: 2.962
 S          -0.49640811495727    1.15183824143403    1.92366814677329
O          -1.26768393416436    1.00461159796879    0.68332289032976
O          -0.71516468920542    0.03060292189652    2.81120267881935
O           0.89546542758126    1.44601382803259    1.66038171186969
O          -1.08100168348736    2.43517761397729    2.65114057332865
H          -0.62367389873362    3.16216726146491    2.23629510645603
H           1.64927887703989    0.26984979577831    0.88247754427416
O           2.11685740857457   -0.45159142594615    0.38848482894704
H           2.99567580479013   -0.49982233060243    0.76791983178947
O          -0.20494958338560   -1.41016348242200   -2.60570677296073
H           0.09149760646852   -1.78877025141380   -3.43408187961214
O          -0.32025408524740    2.55969564093197   -1.23269155755193
H          -0.65148015079685    2.00580766857739   -0.49403988079509
H          -1.04888601906826    2.63961229297945   -1.85120300808593
O           0.48130394334682   -2.52510540631675   -0.30283088936308
H           0.23243861510285   -2.23390777044412   -1.21445469160648
H           1.16884261308093   -1.89207512765010   -0.02089478315341
H          -0.72844753932246   -2.07321324115134    0.46163758121787
O           1.38662528889012    0.61456702382231   -2.09037992634731
H           0.87276576258447    1.40702570419755   -1.83794608860206
H           1.78994252341631    0.29847642673941   -1.26656193357050
H           0.35099743532714   -0.59523993596354   -2.46846364388347
N          -1.55405937687004   -1.56329234928418    0.96101760841270
H          -2.40121844747746   -2.11963908934414    0.98793909576824
H          -1.69031077246366   -0.64148110464087    0.49347772425036
H          -1.24815301103932   -1.23114451253663    1.91028969297772
