    26
        -50.45829586  Gyration_radius:  2.56855513151 Dipole_moment: 2.960
 S          -1.76043548034172   -1.10722244945672   -0.97305395878331
O          -0.83850591928956   -0.11495267589836   -1.53927071805435
O          -1.19150410664874   -2.43642180786238   -1.02187178273168
O          -2.24482386871465   -0.70980675904663    0.33102231679795
O          -3.03109413787223   -1.11538910811207   -1.92336007724225
H          -3.56286290532170   -0.39244047859002   -1.60033962472986
H          -1.08109861432226   -0.60931625327789    1.42310653552887
O           2.48656233713149    1.56576610518120    0.43641507443041
H           3.12434722847103    2.10285292182884    0.90779752501264
O          -0.36062921210449   -0.53292529335176    2.09997593931526
H          -0.73125370892676   -0.87626259208677    2.91449493918758
O          -1.46562828084160    2.33295617547256   -0.76263585100610
H          -1.27153490488357    1.41223037672501   -1.03958066249216
H          -1.04399943581266    2.89926581171727   -1.41176615687315
O           0.12836510646515    2.13943327514575    1.44036912047698
H          -0.10806226875165    1.27242699926874    1.80594151789831
H           1.59323814463757    1.85651723198031    0.76716027260458
H          -0.52212812659916    2.30512602949204    0.72956943258675
O           2.13625039260181   -0.97739272492347    1.08944364928341
H           1.29106630848073   -0.90023991152177    1.57176025139223
H           1.70490653895554   -1.43630822954829   -0.27263606161258
H           2.39478778110320   -0.04447155014700    0.88779928777322
N           1.25179789566442   -1.63111646989468   -1.24617882319589
H           1.92426696262487   -1.94406141365900   -1.93741217405670
H           0.74042671255261   -0.77133967756291   -1.53947366973123
H           0.43754555195185   -2.28690754176357   -1.13727632174266
