    26
        -50.45903121  Gyration_radius:  2.40952209223 Dipole_moment: 6.447
 S          -0.15413987522577   -1.39143222799625    1.47331512056900
O           0.05638284962849   -2.63734371234472    0.71396171898043
O          -0.06643937222095   -1.51155415151896    2.88908011611469
O           0.74382196130981   -0.36596254298075    0.90871420701016
O          -1.62300411043814   -0.93008146238741    1.15369043357355
H          -1.68752857544435   -0.62288615722911    0.22383167061653
H           1.14701024858787    0.97788286634492    0.06575894700807
O          -1.89526525675243    0.24283685706048   -1.20757593015093
H          -2.81817240063348    0.26441560249860   -1.46476456927879
O           1.36599270489693    1.76286383693747   -0.48844388526218
H           2.03861065572186    2.24605522309915   -0.00671082296262
O          -0.52584703853385    1.36023533531871    2.52089987413666
H          -1.00211568770669    0.85655732667358    3.18434812875480
H           0.03223760481909    0.70006405119390    2.07586929088571
O           0.51053824538947    0.03723828591990   -2.44676436055461
H           0.91158937420386    0.79574377696408   -1.99166365051268
H           1.14507956486475   -1.19866917013016   -1.72626575842162
H          -0.42188095886351    0.04782116815554   -2.16046734054676
O          -1.27128660404760    2.37157356562027    0.11003861754156
H          -1.19382339222825    2.10122618021366    1.04805497570620
H          -0.35138152686190    2.45546106960397   -0.19071239247461
H          -1.71468285038301    1.11409570400699   -0.72724504528442
N           1.60443258106263   -1.98557798897656   -1.16203170390119
H           0.89196524834138   -2.31282430107068   -0.35742485586119
H           2.41675694211613   -1.61048369150742   -0.68138058074713
H           1.86114968839750   -2.76725544346796   -1.75611223494429
