    26
        -50.44621521  Gyration_radius:  2.4159972295 Dipole_moment: 3.591
 S          -0.34567509848616    1.73773316993246    0.95818047434302
O          -1.39323642305164    1.92169679784590   -0.00961651680138
O          -0.73831390472398    1.47319588526754    2.29872068504524
O           0.56549681305286    0.59785727830799    0.43318245751779
O           0.61045021527112    2.95370488975497    0.89779140491979
H           0.84034668853509    2.99020587373409   -0.07261900382142
H           0.86622611279245   -0.10810540727487    1.08392598888955
O           1.51362595080722   -1.40013414863428    1.72173392699262
H           2.43535655972779   -1.23076227305805    1.92625410259293
O           0.69846776470537   -0.18036100784730   -2.27404024798574
H           0.57551182601517   -0.32541750406184   -3.21421400633576
O           0.68470511961444    2.54612318207848   -1.65863076735145
H           0.92945002132732    1.61479104451591   -1.82140034126346
H          -0.27702582748079    2.53584723172459   -1.56761272818821
O           1.26496979681390   -2.35852331548894   -0.71537943297728
H           0.36876338403904   -2.69900549069192   -0.77346436358910
H           1.26487743815952   -1.53842692536386   -1.24906641362141
H           1.49989277184930   -1.87947052028426    0.85065622428132
O          -1.63093603765367   -0.54064167719383   -1.10288385295795
H          -1.78130500386221    0.38566656786253   -0.85535966861931
H          -0.19521703278360   -0.30518950461701   -1.85020201856758
H          -1.60231429794507   -0.99680896073880   -0.23160358592181
N          -1.54530325716222   -1.30260383154409    1.52326888936253
H          -2.36531772793218   -1.75165672239899    1.91415221244522
H          -1.51156133782800   -0.35706194112213    1.89588039394948
H          -0.73193450393730   -1.78265271064036    1.89234617773931
