    26
        -50.47455452  Gyration_radius:  2.4260324704 Dipole_moment: 3.597
 S           0.84680717119384    1.22428136160689   -0.37637909165053
O           1.06407613970553    0.60291159703098    0.93465202167259
O           1.03111322606432    0.26979899765054   -1.45268150417045
O          -0.45949358851687    1.86814306080052   -0.40906081425495
O           1.94323419224985    2.31784205847177   -0.55995035041591
H           1.74881305121566    2.94913379597594    0.16049909951281
H          -1.38387661290402    0.97275226005961   -1.54822363349776
O           1.37872791750546   -1.92237643897451    1.71000282039345
H           1.44332035894459   -0.96461557812267    1.51179563456416
O          -1.72127982380780    0.31781193798035   -2.18998970236105
H          -0.99257096758938    0.19185387582987   -2.80232964687427
O           0.67071950436106    3.34203449709841    1.51671899705216
H          -0.04497980602655    3.05184679472711    0.92703405114712
H           0.85597146695550    2.59050754723532    2.08857310755861
O          -1.45679017219694   -0.14640856595771    1.41805518401021
H           0.65798918359827   -2.00384880903906    2.33977944881839
H          -0.52782775734635    0.13018675431031    1.29241199446174
H          -1.97707119779039    0.61527903979218    1.14994878333367
O          -1.96040260962282   -1.84215479023999   -0.62746944186015
H          -1.94074277882796   -1.36807646377131    0.22934274762194
H          -2.05931506977165   -1.12492727061796   -1.29414390361347
H          -0.49056973637290   -2.23166242706161   -0.78233427701330
N           0.59173772409786   -2.24686432308851   -0.81817788607378
H           0.87147255047279   -1.28685062256664   -1.15507301269348
H           0.95328992637457   -2.97322262068989   -1.42544801750952
H           0.95764769808205   -2.33337565837821    0.16244737186861
