    26
        -50.45903113  Gyration_radius:  2.40968016306 Dipole_moment: 6.448
 S           0.04779798446594   -0.37347723280049    1.99723841113350
O           1.26519528045196    0.35535401421665    2.39723153471465
O          -0.80585449203465   -0.77641570136368    3.06283808601733
O          -0.63351553751772    0.42724475448726    0.96220040150557
O           0.54054623110495   -1.69166688201903    1.29572019739878
H           0.95096589592914   -1.48199066649460    0.42923290712650
H          -1.15114360398984    0.81187178383455   -0.54234258844730
O           1.36874914082713   -1.34117435372186   -1.19757548447256
H           1.89019069104444   -2.09241473140233   -1.48413693162402
O          -1.40741323222366    1.04316670709306   -1.46539160434760
H          -2.30310092964729    1.37937442272429   -1.41369093932075
O          -2.28107098341176   -1.67170448303816    0.69414685623183
H          -2.17649217618090   -2.23572760826398    1.46331157271122
H          -1.78886084841539   -0.86474893949295    0.92197120131667
O          -1.12275498775979   -1.69777614910218   -1.76498334239647
H           0.41651100768567   -1.53402800516995   -1.47769087745642
H          -1.56939009717925   -1.90681945174823   -0.91896168492222
H          -1.35921559899254   -0.77137027259443   -1.93697614530081
O           1.31772652959245    1.33394969448166   -1.65167528659106
H           0.36683261108870    1.37475769501446   -1.84504598428792
H           1.42200387454980    1.91412842832686   -0.20199613939970
H           1.50563070227350    0.38129053799221   -1.55867371059447
N           1.40048630366055    2.29643249762109    0.79901743342610
H           2.19113015483290    2.90623165137245    0.98028234323389
H           1.39291160619731    1.42964794948964    1.51383913166262
H           0.52213446364394    2.78586435055527    0.94211063268331
