    26
        -50.44805263  Gyration_radius:  2.67332611259 Dipole_moment: 6.571
 S           0.86918674867510    0.51203799741727    1.28157010720054
O           1.75617201778375   -0.46837654764510    0.70317023928672
O           0.47203092942781    1.57272222312865    0.41699784381616
O          -0.38192333944734   -0.23048450509504    1.82953157412541
O           1.48113970729483    1.06689857415448    2.56873714921761
H           1.88542809087891    0.24325728766672    3.03482193429071
H          -0.93912000441202   -0.61513159187785    1.07942196626820
O          -1.77999365425139   -1.25831763208921   -0.05494122451896
H          -2.53930016612140   -1.70442284830869    0.32507000619025
O          -0.35695876595437    0.68411055564159   -3.28217334799641
H           0.21516815348408    0.71798265064646   -4.04898318241655
O          -1.23572076860783    2.62942671972391   -1.43023777271615
H          -0.64528716167474    2.43162973779911   -0.68827872299481
H          -0.78701985376791    2.26135612938000   -2.20660302951376
O          -2.71819345992179    0.46613329617019   -1.69584175190632
H          -2.16285746128124   -0.54935790313645   -0.68025915675544
H          -2.35604683303198    1.35614633960268   -1.45550588515685
H          -2.27023541756911    0.27323009105000   -2.52932567334940
O           0.56924749656655   -1.21824230243466   -1.62081596140198
H           0.03917929464665    0.01562926353462   -2.67891568771309
H           1.15050635500409   -0.93496717133494   -0.89564573361911
H          -0.23803361452993   -1.52814278117118   -1.19183890403143
N           2.41783350688456   -1.18779557544586    3.33135128608648
H           3.34065715120889   -1.29963823030558    3.72928634857838
H           2.44072452563993   -1.43628590984967    2.34559960605367
H           1.77341652305589   -1.79939789722584    3.81380796298654
