    26
        -50.45499945  Gyration_radius:  2.50034120943 Dipole_moment: 4.582
 S           0.33599609298944   -0.78872160597872   -0.69414950705234
O          -0.09228314824053   -1.93405227711533    0.10075205322958
O           1.47956844516792   -0.11852941621082   -0.07434429914915
O           0.76251990060059   -1.31793979699754   -2.07656412034435
O          -0.77026694906559    0.15282722946727   -0.87500758778379
O          -2.19343824734602   -1.85610189635868    1.56096010730929
H          -2.36517357964979   -2.76255283252550    1.82263362585934
H          -1.47398928735222   -1.89814422780419    0.86812569461600
O           1.37593891439976   -1.15477520212297    2.26215151738047
H           1.14816383844503   -2.03307006016132    1.93432040312615
H           1.55634349453640   -0.65049106561177    1.41939711894609
O          -1.20105128749171    1.58131460463610    1.20479700959257
H          -2.12931731111958    1.81432264957798    1.12789505927380
H          -0.98311889810078    1.06350560809531    0.37421440690288
O           2.36503380301890    0.61760663810224   -2.50547686530857
H           1.69592921437670    1.32010046196031   -2.69872982030896
H           2.45588312974477    0.61323363004111   -1.54057399849564
H           1.42749421461900   -0.63397467931615   -2.40451418704306
O          -0.84290058860905   -0.21496535067164    2.93432018154237
H          -0.95737942005314    0.61283140614884    2.31295599640603
H          -1.46880596360255   -0.91295692513667    2.50784398643699
H           0.14084920526967   -0.57874019855190    2.74455029705853
N           0.19212243125102    2.19559315126501   -2.63198569769105
H          -0.34579211217618    2.29224129140275   -3.48373283619498
H           0.16691834973263    3.08380076013776   -2.14710870154498
H          -0.27924422134120    1.50763809372398   -2.04272984676521
