    26
        -50.47455443  Gyration_radius:  2.42609333261 Dipole_moment: 3.597
 S          -0.28482592507705    0.96807212923157    1.15760212799836
O           1.10974498441548    0.61317515013147    0.87262604053573
O          -0.93461197438745    1.54041217414354   -0.00583211450444
O          -0.99223215364529   -0.18976420022764    1.68789390247364
O          -0.26740746248860    2.08107641021473    2.24949373765124
H           0.14051167000725    1.63263646742329    3.01625301932738
H          -2.15708505125825   -0.60278744360188    0.49324906699081
O          -2.70369254724543   -0.67281240602368   -0.31359940401689
H          -2.92265239924541    0.23702079245307   -0.52888854098193
O           2.52470414571638    0.49785233825766   -1.37722794780338
H           2.14719776328114    0.67074693838655   -0.48934799583776
O           0.81160410068445    0.11086795296872    3.64021514282286
H           1.57199073137934    0.02143516512098    3.05719117699128
H           0.07234742964715   -0.31265705919658    3.17287688561656
O           0.70389897098859   -1.91039417120030    0.08804363741324
H           0.07682631563514   -2.25227974813785    0.73036674795032
H           2.80924552735241   -0.41944746402540   -1.35855750904020
H           0.89923881893448   -1.00159554563710    0.39010424904672
O          -0.90289921235815   -1.59762321048600   -2.06468235809674
H          -1.70314791649564   -1.39336865162920   -1.52944137763184
H          -0.35613274730560   -0.20548825560352   -2.38019504145966
H          -0.25042088940810   -1.91134978071474   -1.40509203511389
N           0.05131447781520    0.79666373315351   -2.33051194696512
H           1.08589077340451    0.72895896136807   -2.16242335117190
H          -0.36334264755038    1.22153016249892   -1.45824503853307
H          -0.16606475282348    1.34911958111434   -3.15187106358996
