    26
        -50.47455457  Gyration_radius:  2.4259912565 Dipole_moment: 3.600
 S           0.02811067401154    1.44719415089887    0.51193046425819
O          -0.12125768774403    0.36273834859920    1.48865400238015
O           1.23229206365906    1.28542295577004   -0.27993951660701
O          -1.17516225483497    1.54936514129673   -0.30278214380794
O           0.19851528513691    2.77396109306188    1.31322673367896
H          -0.64907005002856    2.85330421257514    1.79345997950128
H          -0.69376977890507    1.09910374294840   -1.89054182862000
O          -0.21584047129419    0.78534562099024   -2.68285277584034
H           0.63302818767927    1.23182364468423   -2.63713859126204
O           1.16131900074173   -1.93995465467278    1.84822010346888
H           0.74622135279833   -1.05389965785283    1.90600799212558
O          -2.24696023993928    2.13074509716413    2.07897242147655
H          -1.97404055259994    1.30305137133154    2.48717083620933
H          -2.25247347034910    1.96093638534780    1.12231505135713
O           0.10295787490345   -1.80494287854237   -2.08805303980589
H          -0.04541505892529   -0.92974244920144   -2.51298676488490
H           1.35808600673048   -1.55362402058660   -1.25281822735866
H          -0.58305896112001   -1.84898590152372   -1.39042232070882
O          -1.56519882728985   -1.30766373143610   -0.01878323146356
H          -2.20891397516705   -0.73416573905641   -0.44242170152679
H           0.43035389455958   -2.56040156435483    1.78972151747720
H          -1.05918975150123   -0.71836930865176    0.57452049985092
N           2.08710335943134   -1.19071121304226   -0.53887855543446
H           1.88051082774218   -0.16166631286488   -0.43032051297337
H           3.04193340420237   -1.34767661322586   -0.84016891226922
H           1.88991914804642   -1.63118769961826    0.39390851075899
