    26
        -50.44621502  Gyration_radius:  2.41624502463 Dipole_moment: 3.599
 S          -0.09207735411960   -1.98839621254079    0.30856835577579
O          -0.52004854301867   -2.05749994161385   -1.06252453302870
O           1.20498389558012   -2.48611511902887    0.61038723074640
O          -0.21213671475968   -0.50631788451695    0.74969477169487
O          -1.15976044080746   -2.66632249783987    1.20099563007190
H          -1.99414249238871   -2.19444461869717    0.92285982103048
H           0.54518367708041   -0.10451829970106    1.27596103364352
O           1.48013107351161    0.90675308190650    2.05101442904412
H           1.19634803058179    0.97312727509321    2.96488875780112
O          -1.87313695465019    1.37849696346231   -0.53263184812502
H          -2.45323679192828    1.87313900996758   -1.11479640513040
O          -2.88332586833031   -1.17719462292108   -0.03025462871401
H          -2.59360941215435   -0.24629898455387    0.02862151789512
H          -2.44452200764942   -1.52240388693003   -0.81869078484868
O           0.08385817131652    0.40675221955116   -1.99962066639176
H           0.97384818881450    0.41450644045540   -1.58024679979208
H          -0.17525560929498   -0.52636559070999   -1.93538136533979
H          -1.14801918990484    1.00637602561759   -1.10690822192889
O           0.25746200453311    2.70141593052346    0.56576491403731
H           1.08860930985290    1.68689013139919    1.57487442905918
H           0.73758573813491    2.72689513780578   -0.26572255023303
H          -0.58557720056548    2.24771698129359    0.36371637757890
N           2.43423241232826   -0.08573416622230   -0.68874066170373
H           3.28206294039014   -0.14863502392737   -1.24017197371304
H           2.18847141506650   -1.03009759743003   -0.40281063295751
H           2.66207171238549    0.41827524957470    0.16115379352934
