    26
        -50.44209243  Gyration_radius:  2.69324592509 Dipole_moment: 7.765
 S           1.92890304184515    0.78015536730238    1.97929749720557
O           2.28871895437119    0.90455818801966    0.58091522182398
O           2.46067153961817    1.75614635969219    2.85433668726236
O           0.37726458841652    0.71305548324765    2.04990409042571
O           2.32113568418625   -0.62777711468560    2.48221840325752
H           1.83526411603990   -1.30115373973868    1.93040521928319
H           0.03062720029020    1.26935778260615    1.28168821340242
O           1.13421475594572   -2.35034663957241    0.92906208734521
H           1.64326989715629   -3.16263324974065    0.96020483575750
O          -0.88745773190633   -0.09359975757804   -1.52592892930915
H          -1.66629305240419    0.37953434722946   -1.89085495434214
O          -0.08411910044456    2.00589542725518   -0.09622379760470
H           0.87630757413150    2.04527826505386   -0.19825071961081
H          -0.37959628109381    1.25892000939063   -0.67596074127269
O           1.69954486740548   -1.01002814284358   -1.18420074415507
H           0.85399668284934   -0.70013474774667   -1.54745566900901
H           2.06478855582993   -0.25713162833927   -0.67725826987537
H           1.35894330520264   -1.90646057009958    0.04577732408594
O          -1.56745452904478   -1.78546641582238    0.49125363800381
H          -1.95389835497393   -2.65446769142637    0.37175121617494
H          -0.68642181410233   -1.92186938056054    0.87369553104372
H          -1.23272549567375   -0.68163434079586   -0.82570362522535
N          -2.93792174467562    1.61935428020014   -2.06303905448648
H          -2.56257999655787    2.34183120202377   -1.45854699344395
H          -3.84769607948799    1.35822077782784   -1.70372506766136
H          -3.06748661297909    2.02039588921692   -2.98336140905680
