    26
        -50.47455444  Gyration_radius:  2.42604955838 Dipole_moment: 3.598
 S          -0.55519780596190    0.81044525974307    1.18059061551501
O          -0.43335260845513    1.47181622004883   -0.12317779602433
O          -1.37901463318158   -0.38019607517663    1.09615391013860
O           0.76890112715222    0.54411136211295    1.72667110215473
O          -1.29568270252127    1.79674728101663    2.13462557402509
H          -0.68299360216414    2.55657936021742    2.18642356397080
H           0.92184270205264   -1.16792534632166    1.74493218084229
O           0.80389497780276   -2.13149983554542    1.63438606152018
H          -0.10420401010757   -2.28955347384892    1.90339050445180
O          -1.11660962737481    0.74875024878831   -2.59065423152749
H          -0.98546765971495    1.17450128063415   -1.71761991873880
O           0.88414802717945    3.21608214890892    1.67179522430681
H           1.21998676517017    2.31634261237562    1.82002608547539
H           0.72618404876859    3.28102324292138    0.72474392001066
O           1.77684317409790    0.22910545273634   -0.97147403715321
H           2.34964500759525    0.22789620234944   -0.20035539239104
H          -0.26533949027234    0.80529959650500   -3.03207910413214
H           0.98198602183005    0.72366124899224   -0.69056728127248
O           1.00145381276566   -2.36120479717054   -1.02502303366818
H          -0.46731126494904   -2.00796820978334   -1.25774880245704
H           1.43116504674896   -1.49571454368521   -1.18467251075066
H           1.03943555700443   -2.46938643918181   -0.04754407860416
N          -1.44516609235250   -1.54250341630520   -1.26480970631365
H          -1.55474042326127   -1.11306141337605   -0.30728502640053
H          -2.19029431560381   -2.19982751387013   -1.46432729909155
H          -1.43011201219169   -0.74352044308648   -1.94640054395443
