    26
        -50.45903124  Gyration_radius:  2.40961631736 Dipole_moment: 6.444
 S          -1.21620975277661    1.38963823524376    0.84918519393714
O          -2.54274167646487    0.78891548493752    0.61953166918987
O          -1.17955262727813    2.45961513816592    1.78744434351649
O          -0.27708563119649    0.29534478616762    1.16095376703750
O          -0.76573622126222    1.99058674662929   -0.53234814126527
H          -0.56143402465741    1.26928556396932   -1.16572751862080
H           0.95704029406547   -0.74713640928993    0.89627344477919
O           1.67114413830776   -1.39447154811469    0.69082888797203
H           2.19200683989653   -1.47498121160541    1.49097326486664
O           0.14423410687267    0.18634794354479   -2.24761198898975
H           0.15484675961785    0.54636672029984   -3.13566664192363
O           1.64166269991488    2.16558958236968    1.04597434286374
H           0.92525115245427    1.54132389778996    1.25180745785544
H           1.22433509268275    3.02788981211149    1.09913039611595
O           2.39405809718729    0.62608012332735   -1.06397782294161
H           2.42599419814670   -0.18056261913368   -0.52360130982440
H           1.05996487962537    0.36572837965427   -1.85816024491253
H           2.22798065308289    1.34237211108825   -0.41709708979668
O          -0.24512910853648   -2.23645455978968   -1.08858028024770
H           0.55145961596264   -2.20051964029975   -0.53414583669605
H          -1.40520902325588   -1.93561335710601   -0.08196630725480
H          -0.18456860777980   -1.44258589151378   -1.65214189692625
N          -2.13326030391573   -1.69511774814140    0.66676184467594
H          -2.98090616081754   -2.24054112873038    0.54896928756413
H          -2.35525693589343   -0.59521153488511    0.61065611713820
H          -1.72288845397895   -1.85188886668537    1.58253506188695
