    26
        -50.45807506  Gyration_radius:  2.42144161983 Dipole_moment: 7.652
 S           0.47836561477595    1.39665872666408    1.63623642448594
O           1.48653456750429    1.53726248765194    0.59535740956380
O           0.65621957307319    2.20021552980720    2.79489207185145
O          -0.91755416371463    1.75807712584938    0.95864609925640
O           0.29113723679262   -0.04818309676901    1.96933599022208
H           0.90393961203178   -1.30789590472890    1.15673047365779
H          -0.68177857556754    2.19518254009420    0.09547413411418
O           1.14740649122129   -2.10733637651552    0.62129746295430
H           1.58486667391126   -2.70908838582285    1.22432334320009
O          -0.11516395323437    0.01598505405098   -2.42150824606958
H          -0.00101842512905   -0.09484416114446   -3.36619553460654
O          -0.03011872256893    2.56535827010651   -1.31413625124662
H           0.82183832498553    2.43687680949020   -0.86184560387895
H          -0.17004647187364    1.75812448862361   -1.84101499987039
O           2.13591295806694   -0.29331039463185   -1.19029280439729
H           0.79730314286759   -0.10682877558936   -2.01133215391752
H           2.04979764965686    0.42899428185876   -0.52887870326347
H           2.01571177075690   -1.10523520408285   -0.67365504205182
O          -1.15579824679546   -1.93462592849204   -0.86456985696846
H          -1.82856423765706   -1.20577365057525    0.31864358014319
H          -0.89655795504761   -1.24480046446585   -1.51205793106005
H          -0.32085960349328   -2.21473446206824   -0.44720540628332
N          -2.05884132115558   -0.63772013188516    1.20630069987880
H          -2.44537896707765    0.27325242587237    0.96018167507707
H          -1.08290102959664   -0.41136572755625    1.65228594419647
H          -2.66445194273366   -1.14424508574096    1.84298722501208
