    26
        -50.45903128  Gyration_radius:  2.40955944579 Dipole_moment: 6.446
 S           1.00124113006422   -1.59458492941491   -0.76571403459098
O           0.14944672538896   -1.94190686391908   -1.91768332940704
O           2.29167216491773   -2.19554126825454   -0.75144055162524
O           1.03131252698590   -0.12344287684209   -0.65851878111148
O           0.24722523523098   -2.12433268283516    0.50840050281256
H          -0.55749005698234   -1.58744468063357    0.67400816178819
H           0.68473358365380    1.34416668681458   -0.02156758232620
O          -1.76066979156474   -0.58177980989477    1.29181551254921
H          -2.33781320315649   -1.06305709613272    1.88647531628808
O           0.42061508983613    2.21580867033202    0.35488320553943
H           1.20606191263641    2.76377043397964    0.32680482160495
O           2.34762164156409   -0.50854491135005    1.64598337408224
H           2.02712899056701   -0.38486779356791    0.73640604314137
H           2.66816209894992   -1.41275221016732    1.66118903318198
O           0.08444992155519    0.64461002529914    2.61370713463375
H          -1.08718503260084   -0.10402171724550    1.87544675539082
H           0.90915472390058    0.13682450498620    2.46831773296290
H           0.17665159906651    1.41984322233578    2.03559583915726
O          -2.01385318924391    1.35964618213147   -0.58748143489351
H          -2.10476707183471    0.64234916019809    0.06727696053999
H          -1.30213099025313    1.91905630055942   -0.23578216494705
H          -1.36379522282552    0.68752254059332   -1.84262250829233
N          -0.83355389649456    0.25226102925724   -2.66596170791214
H          -1.42682102169322    0.16421024956899   -3.48456915238038
H          -0.43970105418100   -0.75084843939038   -2.34856004810339
H          -0.01769681348537    0.82305627359495   -2.86640910808536
