    26
        -50.45322701  Gyration_radius:  2.51776178463 Dipole_moment: 4.039
 S          -0.99262779577921    0.55303251111902    0.02552106763854
O          -1.28412762523821    1.38794280275712   -1.11134907884345
O          -1.60482351540149    1.19447994657738    1.31351538340165
O          -1.52557830872789   -0.79172649410062   -0.04715467616204
O           0.47311714908987    0.50161930499777    0.27008474299840
O           1.97907778646181   -1.61608461675281   -2.29091083574460
H           1.64820207107286   -0.68771899170258   -2.42287761817417
H           2.89147162074672   -1.62243738683645   -2.58619604908864
O           1.16841079730550    0.88177691379829   -2.26248000858471
H           1.06801723671976    0.89270148481239   -1.28981363316797
H           0.28142865580649    1.10030624683545   -2.57007326098017
O          -0.47872751546794   -3.15588617292895    0.60903837283041
H          -0.67151787296369   -3.03006447277919    1.55018804397985
H          -1.05481395630400   -2.50070950412792    0.16602518222210
O          -1.13556341034742   -1.38798654671520    2.58323688181831
H          -1.40444979970107   -1.01377224006399    1.72839576314597
H          -1.26413964476758   -0.68609566840048    3.22202094569492
O           1.55844300020546   -1.74615067380846    0.22260465858285
H           1.77085336410486   -1.79603528333214   -0.78086738379181
H           1.12715314549855   -0.79993005147776    0.34190548405340
H           0.76900976144185   -2.42716954283107    0.40479311477150
N          -0.61383789718319    3.50186459190637    0.60583677612912
H          -0.79682505775566    3.10985355763389   -0.31580654082853
H           0.38841826974080    3.55591919608370    0.73201925778802
H          -0.99409629486203    4.43851137083558    0.64634112031906
H          -1.30247414371028    2.14375970848601    1.25600229999329
