    26
        -50.45475612  Gyration_radius:  2.58849758915 Dipole_moment: 6.612
 S           0.96828804751333   -2.43195548871770    0.31569229438574
O          -0.10366328155300   -2.98253182482032   -0.50765393236352
O           2.00080483611786   -3.34469887712878    0.68779043356408
O           1.70292186154736   -1.34866448784677   -0.67421006855453
O           0.42548126943630   -1.59566406251283    1.37104425309874
H           0.91778629162154   -0.26442042742979    2.06127987922403
H           2.30193163516791   -1.91770229736341   -1.14729892801216
O           1.10713601283060    0.63787486936386    2.43350020673343
H           1.43562255767957    0.49391670359607    3.32153514543637
O          -0.23901732418105    2.46308364495882   -0.89483388323200
H          -0.04395640537838    3.37928759330424   -1.09439504603060
O          -1.56783295469238    0.71796327006284   -2.47606858426625
H          -1.02872193414844    1.37044574788781   -1.98232919072313
H          -2.30740019744633    1.19980903052627   -2.84871049353294
O           1.95265679728821    1.34307418137225   -0.06076350891552
H           1.80065651746733    1.26088644886748    0.89785782388057
H           1.94154324778730    0.42989464810683   -0.38736684619365
H           0.63392955206063    2.04772541687300   -0.63004082640878
O          -1.36883753351468    1.05327563584332    1.22910429982633
H          -1.54571315781422   -0.35145126077163    0.38125203628605
H          -0.60128828395530    0.94781049009230    1.81453144940873
H          -1.08826164451427    1.68297102012833    0.54540589439328
N          -1.77827485206023   -1.03239441050395   -0.39459157970531
H          -2.71076564177154   -1.40676542176887   -0.25097063136197
H          -1.07295364460425   -1.84768803633108   -0.41898888324632
H          -1.73207177081922   -0.50408210582856   -1.29077132384509
