    26
        -50.45475619  Gyration_radius:  2.58815323501 Dipole_moment: 6.608
 S           1.85731789165978   -1.64685576587186   -0.88608045369720
O           1.42592477543291   -1.42036947106921   -2.26182322269892
O           3.05277786131653   -2.41003238727979   -0.72459466514989
O           2.24206183533374   -0.14566345681921   -0.34590593019626
O           0.72960647508566   -2.01683067799108   -0.04993350841357
H           0.34447124707716   -1.71454884267280    1.45044721176285
H           3.13813241848619   -0.06867376706609   -0.65826661160261
O          -0.01231648742536   -1.44538587868501    2.33853449939949
H           0.09527846734575   -2.20735140506072    2.90862754024812
O          -1.09889385938048    2.18366736854804    0.97216258717954
H          -1.30417683883474    2.91346738576695    1.55742169673847
O          -0.99245502981497    2.26436748098994   -1.72853363350799
H          -0.96987755032476    2.31456515547118   -0.75022163418425
H          -1.74083639882990    2.79088532707153   -2.01259435164836
O          -1.97369438233432   -0.44252127745002    0.63499847944507
H          -1.84335863452942    0.50297624336138    0.81316677015768
H          -1.24678854287607   -0.64105237692424   -0.83334218020882
H          -1.43360388505869   -0.90690284682069    1.29503400967424
O           1.04699143644077    1.02203899479842    1.86590137603373
H           0.69897785741841    0.20223016360809    2.26044049688853
H           1.54660635293754    0.72473448370759    1.08957440419513
H          -0.24020382017337    1.79295046104895    1.31091725974087
N          -0.92077807971439   -0.46074625811301   -1.82373368266740
H           0.05865447926472   -0.87975761600703   -1.99152022016103
H          -0.88504437624961    0.57207643358352   -1.95188050629826
H          -1.57477321213275   -0.87726746020956   -2.47879573092051
