    26
        -50.45475617  Gyration_radius:  2.588345318 Dipole_moment: 6.612
 S          -2.43416150142985   -0.31054415711312    0.96305574281670
O          -2.99756213318584    0.37771331328739   -0.19401594573197
O          -3.37624851497995   -0.91102991975345    1.85165015114846
O          -1.61492765422677   -1.57156920250335    0.30569402206081
O          -1.38100590793247    0.48402998358314    1.56921328401321
H          -0.01325828330701    0.12189545980891    2.26858618048636
H          -2.31530917652484   -2.20983994839308    0.21350988091484
O           0.91303429258949   -0.03745126914149    2.59268954465246
H           0.88426864767188    0.07854306768983    3.54291525879323
O           2.29154874262173   -0.59172377877602   -1.14992681523801
H           3.13630242083182   -1.00515257714445   -1.33088356578449
O           0.45900521830965    0.19778820568297   -2.97485671398002
H           0.94815978599486    0.61019854706162   -3.68805276648503
H           1.12321096819403   -0.17701320310277   -2.35968939714557
O           1.38164125001983    1.56591918707691    0.36434574900925
H           1.85558649270976    0.91525712699013   -0.17850898461103
H          -0.11766495698769    1.59419873127053   -0.32454349740248
H           1.29431689877995    1.15687247182639    1.24072540811912
O           1.09893250334716   -1.98371252387272    0.69224311954530
H           0.15071645710600   -1.96015702617144    0.48981720072655
H           1.83556486050462   -1.18050806186140   -0.47904688740894
H           1.19389165954980   -1.42098836959673    1.48162289161209
N          -0.88946526076196    1.58023650680124   -1.04835565894744
H          -1.13364089139280    2.53165275862687   -1.30434614638016
H          -1.76767511313072    1.08284921954671   -0.66860175456267
H          -0.52526077445676    1.06253543802616   -1.87524030005036
