    26
        -50.45475612  Gyration_radius:  2.58858260173 Dipole_moment: 6.614
 S          -0.31960555201830   -0.29575000746865    2.60059317953103
O          -0.25401441473238    1.15008371763998    2.78841406063574
O          -0.67288073904020   -1.05926353808288    3.75380306763014
O          -1.57511932304483   -0.49752127219568    1.56322200692339
O           0.81917506812910   -0.76459267522596    1.83179617525980
H           1.00378804182168   -1.89613886662371    0.74714297776165
H          -2.30835742199408   -0.50070948642811    2.17047393767637
O           1.14781044244366   -2.49692001188664   -0.03186685477471
H           1.62422977688306   -3.25654089621773    0.30464308568485
O          -0.59263255028027    0.10877777806488   -2.56184418119847
H          -0.89121041452109   -0.14415798299266   -3.43599152821013
O          -0.91787674430160    2.52011611388347   -1.38176140869436
H          -0.89828128391615    1.64806420750711   -1.82811865953706
H          -0.74372243771030    3.17740287428183   -2.05678010117881
O           1.79505667848073   -0.02030657414591   -1.12732062670108
H           1.75663514421165   -0.92615925217935   -0.77949510931471
H           1.07540877381407    0.03817278969419   -1.77646219454615
H           1.28969463927984    0.99550777045525    0.07083923486618
O          -1.32654117693523   -1.74798787010887   -0.89821979395059
H          -0.49060026484832   -2.21181030403656   -0.71148181682385
H          -1.54923428042225   -1.30442940077764   -0.06494617172541
H          -0.93753444488662   -0.59657133595307   -1.93882456252065
N           0.85799820691357    1.82375962204098    0.56821337976039
H           0.12717122438899    2.21392530116849   -0.06266529920220
H           1.57328018338615    2.51912340502279    0.75570138857179
H           0.40736286888151    1.52392587464946    1.50093577411698
