    26
        -50.45811211  Gyration_radius:  2.55880088478 Dipole_moment: 5.255
 S          -0.79954365562423   -0.47021378558679   -0.76415781760028
O          -1.79268708583691   -0.27707567423003   -1.81768090755885
O          -1.16527555019950   -1.45696948311762    0.22471511832284
O           0.53151755659102   -0.70191890210133   -1.34282026351251
O          -0.71834828282430    0.92779272735976   -0.05835262803404
O          -0.13727209023330    3.06918148301498   -1.60599279453971
H          -0.29039564794224    2.39134743905805   -0.91701911031351
H          -0.79871285530556    3.74849553709780   -1.46532659480132
O           1.41530030938569   -2.44871073612455    0.45914135858001
H           1.27749849734202   -1.86393822453798   -0.30956199396083
H           0.51740815405511   -2.63716506927559    0.75448248341044
O           2.40558014163152   -0.67814943571132    2.18438619200466
H           2.13783009658232   -1.36008162436332    1.52196483219611
H           2.57156559746171   -1.15254289527347    3.00068461934821
O          -1.46443826828007   -1.22632659728785    2.84824132117090
H          -1.40176784854102   -1.41601669006729    1.88828668291566
H          -2.39648394510796   -1.10338520829111    3.03342549830279
O           0.20037138520653    0.79651545624542    2.26005538119111
H          -0.30890195873977    0.87468075326232    0.90791336123242
H          -0.39317502032357    0.13231109490598    2.67083926174091
H           1.08858911860162    0.36335808232575    2.22717337622388
N          -0.07919381831161    0.92721825846941   -3.20073884595506
H          -0.01888591886220    1.90370057314433   -2.84261419955663
H           0.55455139137664    0.31298666967679   -2.62019143589834
H          -1.00717753742002    0.49461195968359   -2.83671944568984
H           0.07204723531155    0.85029430171729   -4.20013343918717
