    26
        -50.45812140  Gyration_radius:  2.42441290242 Dipole_moment: 3.416
 S           0.09640649061660   -0.55689428153204    1.71104111861382
O           0.48871103802903    0.86802122790374    1.26125642700992
O          -0.76284251877390   -0.42089368204767    2.83898698414082
O          -0.66470283139956   -1.14168442140472    0.50484531380935
O           1.27795476101223   -1.36287530156449    1.86326242336701
H           1.99013462911611   -1.71790604000061    0.45566769659712
H          -1.37128763883164   -0.43851874367951    0.13096454012788
O           2.42968690518217   -1.80358662857276   -0.42890613542543
H           3.24336353904567   -2.28598989462496   -0.27347095554901
O          -0.13101481158652    0.72363284535682   -2.35762591758873
H          -0.26901024447058    0.94869503955282   -3.27854879520200
O          -2.14172828988513    0.60667202235988   -0.43290679547505
H          -2.18644180964302    1.22957266964721    0.35704295963867
H          -1.51728059306348    0.96583075944986   -1.08576389383294
O           2.04343507336833    0.85914480245680   -0.73506953994338
H           1.35716140057436    0.94970815577136   -1.42392687627629
H           1.17595875632897    0.88535297467743    0.50131664762505
H           2.34500203212319   -0.06947527000727   -0.76021758204917
O           0.18199018751592   -1.87820608083229   -2.02966333101926
H          -0.40158968908169   -1.99642189344526   -1.26941469190468
H          -0.06992241702458   -0.26848417280426   -2.31849400275588
H           1.07499961232991   -1.98591050313298   -1.66294185265981
N          -2.10357197418748    1.90650676304254    1.84686156837706
H          -1.41742832243085    2.64890872644250    1.90056204201243
H          -1.72359569336418    1.11609556831661    2.36874694326175
H          -2.94438761149760    2.21870536867094    2.31639570509947
