    26
        -50.45475614  Gyration_radius:  2.58821699704 Dipole_moment: 6.611
 S          -1.86351596060906   -1.45099976570542    1.17050637253489
O          -2.12173259365477   -0.37887914834171    2.12649770853587
O          -2.76800313769212   -2.55459605506854    1.21131709129625
O          -2.12810664636988   -0.74551490985286   -0.28738603150670
O          -0.44773697822823   -1.76967826502799    1.12790027312105
H           0.53235971631322   -2.20860740446547   -0.02853280795745
H          -3.07176281737576   -0.84582818678179   -0.36479636749839
O           1.21725587654567   -2.35286656359376   -0.73465343103934
H           1.46195782899292   -3.27721240299168   -0.68069586998559
O           1.17059728319254    1.53308581604958   -1.78929824056909
H           1.53460465033153    1.84557746847825   -2.61824431804943
O          -0.14290103703137    3.01270427560236    0.05398140493507
H           0.26988717771384    2.51457446656333   -0.68195982882932
H           0.33605299617444    3.83923789254434    0.12775318792083
O           2.08411249499330    0.04504437381438    0.38479284244785
H           1.94455611418053    0.61788156554051   -0.38662312333261
H           0.80355403090631    0.42083016619644    1.35530437257713
H           1.95137587706504   -0.86099595145283    0.06156183734255
O          -0.20605531756986   -0.61555240217962   -2.28057396822471
H          -0.96420236816294   -0.60516806450037   -1.67573758509054
H           0.60319275361654    0.73965028964930   -2.02004333352953
H           0.36966381351519   -1.32249024604354   -1.93762793761412
N           0.05074096379690    0.97240795284240    1.85411848782418
H          -0.84724207675617    0.38640937503360    1.96897188652413
H          -0.15222150758654    1.81122967430632    1.27139823081884
H           0.38356886358980    1.24975603940695    2.77206914737309
