    26
        -50.45475621  Gyration_radius:  2.58808090454 Dipole_moment: 6.613
 S           0.20464739110093   -0.76890743484245    2.51279424009328
O           1.24358120087143    0.22813125029679    2.75080185142283
O          -0.27139315566645   -1.46168018528919    3.66650617171770
O          -1.07654268676645    0.11814191219555    1.99801136688495
O           0.52879443055452   -1.57980626945212    1.35297098168344
H          -0.33965521409632   -2.23630146862403    0.21061075784407
H          -1.45807926525094    0.37867055023018    2.83047513752955
O          -0.81721965172424   -2.55467441114782   -0.60124505221891
H          -0.89255421407696   -3.50484584383137   -0.50798905349931
O          -0.97187699515453    1.15751090436154   -2.15339394081034
H          -1.56214612559096    1.39099265291992   -2.87058295457248
O           0.65509026888202    2.83505357887485   -0.79302034658670
H          -0.00843680007632    2.29187628171931   -1.26716464513885
H           1.04612338666072    3.41963506699426   -1.44369325976148
O           1.00259610493424   -0.75999662958461   -1.70646283310317
H           0.46681612887947   -1.51913696098262   -1.42419800023576
H           0.36788420808340   -0.10582955633877   -2.04102534466764
H           1.59348231570866   -0.03368107208175   -0.34771034932859
O          -2.31112903363505   -0.27894731349178   -0.45170659184268
H          -1.97920562770987   -0.04783813290805    0.42984408558021
H          -1.53026792635323    0.65334555329988   -1.49098183374690
H          -1.96963295017096   -1.17683161592495   -0.61310421676905
N           1.94548584941504    0.70614096850452    0.32203414129593
H           1.65179016915941    0.48290751004844    1.33532315733102
H           1.52358091977782    1.61170860777502    0.02824132876911
H           2.95826726200179    0.75436208736062    0.27466521206769
