    26
        -50.45061089  Gyration_radius:  2.47913329264 Dipole_moment: 4.883
 S           0.98728607021556    0.93017909467268    1.98248108162386
O           2.06109602380436    1.23248005881167    0.91277569837758
O           0.93472038291430    2.00973037633485    2.89716793180558
O          -0.32889525318587    0.86825679583277    1.13747270874742
O           1.16594425267147   -0.39549540492231    2.50857039359331
H           0.72446531213795   -1.56886338732627    1.48629294575314
H          -0.25050002118528    1.56499763298378    0.41176458242249
O           0.59678997312558   -2.24440641824678    0.77417855013703
H           0.80429300000906   -3.09176713384972    1.17150066966758
O           0.32579837752942    0.23837127502565   -2.36855833148300
H           0.20287519515979    0.17488309384526   -3.31626068973602
O           0.14787721636835    2.42824444262699   -0.82325833093216
H           1.05611996708465    2.66206059473972   -0.60740570564083
H           0.19412072726882    1.71817953014105   -1.50152966510174
O           2.24991829529640   -0.69930091940088   -0.69980471061856
H           1.68542206293964   -0.38245154526444   -1.43191821394600
H           2.21345776748363    0.42417048967669    0.29163243095297
H           1.74174656190373   -1.41108976643758   -0.26135959585740
O          -1.21784952367559   -1.47996398727185   -1.22774144047229
H          -1.94567056951451   -1.00940084774804   -0.75646101339707
H          -0.32542356426762   -0.41492458752471   -1.95566126393610
H          -0.66545551581611   -1.85807961359384   -0.52644488632857
N          -2.99159606989034   -0.09034603824410    0.28359478062405
H          -3.48853630680914    0.68879980016453   -0.12889534413491
H          -2.24409884814068    0.28886439494508    0.85702263790487
H          -3.63390551342556   -0.58312794997684    0.89084475997806
