    26
        -50.44506433  Gyration_radius:  2.49484539866 Dipole_moment: 5.629
 S          -0.42592118070175    0.56885797134560    2.27132814540936
O           0.94925804586504    0.15978085972897    2.22327686316760
O          -0.94224084202540    1.10016446282682    3.47683313716839
O          -0.66543158672395    1.58371428972482    1.10123160529359
O          -1.32334001861444   -0.62266316245741    1.83061310574019
H          -0.81380142872062   -1.24782878535886    1.23794351478613
H           0.21475766352633    1.86154204846530    0.70791780804419
O          -0.02644420319201   -2.32053826357002    0.35475581070246
H          -0.01188598775852   -3.15766147620806    0.82135392379377
O           1.68909457592206    0.28755929667325   -1.83691079664377
H           2.13354938973807    0.19460544702372   -2.68010253472709
O           1.46839484509598    2.32485927878801   -0.11958940006775
H           1.26428459680097    3.11436896212522   -0.62493518015413
H           1.62199171918077    1.60286176459843   -0.76651664098060
O           2.30752113511669   -1.23911928548440    0.39412077765476
H           2.29150626020034   -0.66406756845347   -0.38984870258493
H           2.06787151334411   -0.66950250616987    1.14861477216745
H           0.92610290624276   -1.97880691564010    0.35395137362563
O          -0.59244513089339   -0.93338012296024   -2.00667676521414
H          -1.35361338458374   -0.38883847195326   -1.68892736688175
H           0.79284204625846   -0.15414403606684   -1.94029911568620
H          -0.49005352397420   -1.62473123418743   -1.33821022517793
N          -2.60296252673133    0.42988779132264   -0.81750205665294
H          -3.26941091681467    1.03218988892364   -1.28421025497087
H          -2.08458416136511    0.99236084101031   -0.14870564770568
H          -3.12503980517488   -0.25147109403562   -0.27950613011595
