    26
        -50.45812140  Gyration_radius:  2.4243762841 Dipole_moment: 3.417
 S           1.05916605329777    0.05918409460513   -1.45652775920376
O           0.12392658346607   -1.12846941959252   -1.13799914302986
O           0.83931951423283    0.41483826044523   -2.81827561407831
O           0.58729849796734    1.18072262312261   -0.51020987976398
O           2.40389448326691   -0.25793059967809   -1.05653030368820
H           2.59193774961284   -0.31691971535022    0.54824499336087
H          -0.47438770136074    1.26078195847910   -0.52370899986312
O           2.60733470848010   -0.44226011055183    1.53169090822242
H           3.49960176982830   -0.71755642553419    1.74857956650448
O          -1.42701220306538   -0.05400322085087    2.01485336319204
H          -1.99604671004415    0.02609752622796    2.78139908283383
O          -1.88496577490248    1.18090305423666   -0.43985371713936
H          -1.99203704091942    0.58485837796540    0.32069354572713
H          -2.07649558775444    0.67123652560972   -1.28700698067121
O           0.36990158350948   -1.94046927386417    1.24579356854542
H           1.20509755777759   -1.51799281867296    1.52489135459419
H          -0.35452774968300   -1.41013108781567    1.63008805831871
H           0.26081641984409   -1.52001866561651   -0.20087120809610
O           0.73030615335871    1.45199579628285    2.24465462229182
H          -0.67010299819450    0.57454644270230    2.16176304420972
H           1.47871667603256    0.83291788626384    2.23253953234721
H           0.72859706611913    1.83822896943351    1.35960396318430
N          -1.98191635123657   -0.06895509276587   -2.74562077094307
H          -2.54865693119706    0.25122507865435   -3.52103454325099
H          -2.07551894582101   -1.07483245211732   -2.68000217326350
H          -1.00424683262848    0.12200228838195   -2.96715454035103
