    26
        -50.44731988  Gyration_radius:  2.52075451644 Dipole_moment: 6.567
 S          -1.07887113662872   -1.09867321364492   -1.91940039504403
O           0.26917269408183   -1.25180172613151   -1.42843932737981
O          -1.51001387730962   -2.00607936657330   -2.91437936201247
O          -2.01969439892440   -1.14087897511123   -0.66460729989690
O          -1.29321500938183    0.34617242127396   -2.41230507328036
H          -0.98232691329565    1.00553482076251   -1.72551150019682
H          -1.61123512165091   -1.87150634518721   -0.08713943928874
O           0.32658848549478   -0.85156382395567    2.30009456906195
H           0.75259256987386   -0.95282103047411    3.15163528710072
O          -0.70513352979874    2.11424585581534   -0.60851321310646
H          -1.32958499711771    2.82347511865946   -0.77596868802303
O          -0.64045323502775   -2.77944819505743    0.68317324941983
H           0.05915234571007   -2.76753709571858    0.01769644693979
H          -0.32488241937905   -2.19544361829458    1.40784726134637
O          -1.66883056353519    0.74948975472614    1.37643028098136
H          -2.13556741792416    0.10094943456015    0.83214979184196
H          -0.96966846071164    0.24732923310118    1.83744377690288
H          -1.02723902423679    1.65236921516332    0.22130966981189
O           2.08641416728090   -0.50674660368894    0.45861538661900
H           1.57797174614617   -0.81731427498230   -0.30862409723506
H           2.25458942689855    0.44803092741406    0.27679488027873
H           1.06166807285838   -0.67972347342675    1.62821437677996
N           2.26885935178657    2.11318201741535   -0.22804620131840
H           1.28560715347938    2.25668827469955   -0.43889845568417
H           2.78906992132456    2.22125929531436   -1.08920831279183
H           2.56503016996685    2.84081139333671    0.40963639818625
