    26
        -50.46913522  Gyration_radius:  2.47623195053 Dipole_moment: 3.999
 S           1.09075451646264   -2.10141301597750   -0.39472692888448
O           1.60454123040284   -0.79443302721647   -0.78304529632499
O           2.07776220246166   -3.10586855936412   -0.17911191586564
O           0.09594455492308   -1.95675176518497    0.67721408960711
O           0.19361773489766   -2.58826845084449   -1.63904877586051
H           0.80428096755687   -3.16097171348332   -2.08898140735210
H           0.12354522503649   -0.80837295233141    1.84873745357214
O           0.09587869724883   -0.06371604048756    2.49636263346852
H           0.15067450692127   -0.46329634667254    3.36534932803928
O           0.01025177835430    2.68614961717044   -0.37857335617839
H           0.27062611583277    3.60203672855572   -0.47699770698356
O          -0.09183895179717    0.63556554654936   -2.22117089754846
H           0.65862168826574    0.11902564895652   -1.85676895184124
H          -0.05775498509633    1.49201062131920   -1.75725101199640
O           1.84757075744342    1.31081765465941    0.85128540329333
H           1.37509285500694    0.94998630577708    1.61770637522083
H           1.94002270438828    0.55531079962770    0.23766049529031
H           0.76643088809562    2.22639024424992    0.09104084255229
O          -1.84599552646587    1.37092502168543    1.14922808001341
H          -1.30497908684992    2.00495379586666    0.64245063719038
H          -1.97700981315356    0.17741624955184    0.08999633776700
H          -1.23722817151456    0.97454938977032    1.79719148821337
N          -1.74452376154722   -0.59172144221293   -0.60809012442085
H          -1.08767193224486   -1.25875207572354   -0.12686448055500
H          -1.19075010288280   -0.13786654866645   -1.40415110935071
H          -2.56786409174409   -1.07370568556484   -0.94944121106630
