    26
        -50.44703814  Gyration_radius:  2.47155943437 Dipole_moment: 4.893
 S           0.49725717376727    1.98802234197522   -0.31501079644082
O          -0.34200360673360    1.97599156103518    0.85299345853202
O           1.04632426685058    3.21613671783929   -0.74706193576042
O           1.66775287415273    0.98109422747391   -0.07166160352226
O          -0.27828642896531    1.34598516763678   -1.49787104312400
H          -0.89185137428099    0.61676720688428   -1.18476275259941
H           1.38004705541764    0.25165066817841    0.55371437575715
O          -1.80197687788726   -0.63718247359349   -0.86137535633130
H          -2.35377933060843   -0.86576005866850   -1.61134043252758
O           1.03674854303870   -0.93193250295357    1.54404854311047
H           1.79834483450066   -1.15833728795584    2.08130778127973
O          -2.67813896683103    0.60621244526679    1.48718907354742
H          -2.58402539336824   -0.00733213863553    0.74625291496288
H          -2.12804172303322    1.36486845947209    1.24478334394265
O          -0.56312885809114    0.33792199690418    3.10285954569963
H          -1.46792860496407    0.23251146536798    2.73457738988566
H           0.36703070010505   -0.51018395300877    2.17661608174895
H          -0.31150610218946    1.22324843963625    2.81059285628742
O           0.16068961300438   -2.28287846779632   -0.72900461950903
H           0.76244475791856   -1.87287942924355   -1.39795149844742
H           0.52100314270732   -2.03867100840406    0.13606890439801
H          -1.10071741045248   -1.36316706017781   -0.78868014202190
N           1.68395603058984   -0.82252283344355   -2.43513432737962
H           2.41511410493689   -1.19904612349508   -3.02551910995161
H           2.10770313478372   -0.16766031923316   -1.78539725461288
H           1.05696841565538   -0.28285705110026   -3.02023338685212
