    26
        -50.44703811  Gyration_radius:  2.47166266803 Dipole_moment: 4.895
 S           0.13394508225295   -0.46851821543889    2.01524653955510
O           0.91467341837149   -1.46345889143652    1.33019726851884
O           0.08383238120827   -0.49444200339586    3.42709147513044
O           0.65031972155333    0.93627093743378    1.56440489182330
O          -1.31811512810010   -0.50245038995583    1.46485108532492
H          -1.33839273351017   -0.74285264379925    0.49108503709143
H           1.03499586299059    0.88966742213763    0.63940593959237
O          -1.52060637581056   -0.97933978259962   -1.06300977405438
H          -2.44054592460458   -1.13775578451682   -1.28154000045773
O           1.68107961978817    0.92372254752210   -0.80348613745483
H           2.42031412564195    1.53417034046550   -0.83167994543420
O           0.50191861576546   -2.91237656632702   -1.00729687122125
H          -0.22853441635860   -2.34782284303493   -1.29351645761891
H           0.56726651916281   -2.75867401177938   -0.05384496517665
O          -0.90582204468152    1.42620034510360   -1.70560785403377
H          -1.29481586345220   -0.05933782901476   -1.41904145842513
H          -1.25882900844382    1.90243388021397   -0.91426654897589
H           0.05427331661043    1.38759799138440   -1.58481558394460
O           2.71720213561519   -1.42749268522301   -0.80291020707288
H           2.04091151747662   -2.03870964313647   -1.16959844306564
H           2.08273786752161   -0.00223278699736   -0.89254419319881
H           2.64753281677505   -1.57199506761397    0.14927260006375
N          -1.75753591073488    2.43162739486111    0.66687120406838
H          -2.45388221708014    1.79523277148705    1.03679053844685
H          -2.09185344277630    3.37666005192824    0.80872149741701
H          -0.92206992498578    2.30387546151910    1.22922037291508
