    26
        -50.44703812  Gyration_radius:  2.47155722445 Dipole_moment: 4.896
 S           0.57209624924217    0.02182578579304    1.99248439628352
O           1.47100418882930    0.92024570393593    1.31906767511818
O           0.68176851044146   -0.12900361693878    3.39306788557218
O          -0.88806292595174    0.46668351160711    1.65578162007127
O           0.67337894267891   -1.38021867492176    1.33152364553950
H           0.85770660752857   -1.31263114796522    0.34780468477068
H          -0.92079693872040    0.92010550697415    0.76180104809741
O           1.01645603085231   -1.36429536554699   -1.22616280434220
H           1.22374785306793   -2.25212905816397   -1.52268071162023
O          -1.08035344589904    1.66504639855140   -0.62364303227851
H          -1.73917709995869    2.35952145187548   -0.56380860577688
O           2.81113558125050    0.77966718244562   -1.11340078084374
H           2.28191165856420    0.03383569044750   -1.42606220308123
H           2.70558813559125    0.76518504023508   -0.15134667434369
O           1.19280363825510    2.86222505215188   -0.66814223889931
H           1.39559243792933    2.73540069380949    0.26738215120542
H           1.82681554876546    2.25929743051752   -1.11534226218179
H          -0.18994219379914    2.13635695233574   -0.73054511785057
O          -1.45833891684212   -0.87919308535948   -1.69317392126039
H           0.06447874165333   -1.17985243295179   -1.51548756124602
H          -1.86267524253283   -1.32240054234323   -0.90709803035672
H          -1.47838012125852    0.06981418960162   -1.50135695591287
N          -2.26322888465325   -1.97239861067216    0.65637865601856
H          -1.56111961093655   -2.64707599183374    0.93661933625556
H          -3.17382782734396   -2.38245992710567    0.82231798153187
H          -2.15858091660958   -1.17355214659826    1.27402178946351
