    26
        -50.47072342  Gyration_radius:  2.48645376945 Dipole_moment: 3.611
 S           0.04008434489339   -0.43684438040987    1.15285659485942
O           0.40207476664418   -0.71426041242302    2.62774977315773
O          -0.48883895990475    0.91845343813539    1.04708991279471
O           1.26338513888056   -0.58032398599438    0.35438414854083
O          -0.94841768999846   -1.42664117019176    0.74737178400770
O          -1.29328123964929    1.59737638056438   -1.36971689806395
H          -0.55208046656750    1.21538623629342   -1.87058896611050
H          -0.99567088125730    1.55708776518967   -0.43335263346658
O           3.17730817567837    1.01902632296181    1.22053916153959
H           3.88216596249488    0.45941426691450    1.55079986021662
H           2.51020653425330    0.41430642699636    0.82676802068703
O          -0.91708685277241   -2.24349229087944   -2.08674145245537
H          -0.71033734442918   -2.46328101450766   -1.16908375395489
H          -0.26299454804744   -1.56648669042331   -2.33447516663987
O           0.76063910111792   -0.06398668588858   -2.13597014010880
H           0.98105559170011   -0.25841267308037   -1.18763756396774
H           1.59644363910700    0.11989912446728   -2.56824065949862
O           1.23137408293043    1.68707465154701    2.95460853604750
H           0.76267360012046    0.16760426914245    2.93827182443794
H           2.06052226982472    1.65624939895008    2.43264799015042
H           0.53254429810357    1.89034777656586    2.31378255119300
N          -2.65926626549631   -0.58423050301671   -1.01128796363084
H          -2.27071258582709   -1.26822675517518   -1.70510725160928
H          -2.27945440562115    0.39208324723764   -1.24853731118223
H          -3.66794339092804   -0.62053165990097   -0.92431394709346
H          -2.15439287534028   -0.86759109304040   -0.12181646983265
