    26
        -50.47229102  Gyration_radius:  2.48101237239 Dipole_moment: 2.006
 S          -1.44631120722557   -1.31538166235602    1.17114382474854
O          -0.84858731348852   -1.51151521927692   -0.14569381088517
O          -0.43886974766283   -1.07837332432721    2.18514171482903
O          -2.50005601665264   -0.31921483434402    1.14331545790279
O          -2.15745646138200   -2.67844586346598    1.55645169647183
H          -3.00687450246499   -2.56733108931189    1.14283633064915
H          -1.81310610306131    1.09247768138791    0.82933832708908
O           1.25813129017767    0.82814722764787   -2.28014834068907
H           1.42275376081124    1.11605411498385   -3.17815492030346
O          -1.39192523316622    1.94520434984519    0.54955918257528
H          -1.83895707897141    2.63360968066915    1.04448699375536
O           1.68768964501436   -1.60332461131075   -1.04355125552076
H           0.75042712057161   -1.78136787853887   -0.83421475598158
H           1.66797373490778   -0.82724557187098   -1.63213202550622
O          -1.28802502407739    0.48975459306995   -1.84226593311936
H           0.26857238796530    0.70388992782603   -2.19900844650017
H          -1.23841474163888   -0.31946036252438   -1.29159496872530
H          -1.51933543030802    1.19277862768594   -1.21972481219068
O           1.32643136914957    1.99347112441267    0.21286558927024
H           0.36649029699989    2.06334743515002    0.37425397785182
H           1.76436984270425    0.65016143078498    0.95131464425987
H           1.41276639960368    1.73486053288646   -0.72250508954808
N           1.89445987818548   -0.35947540577737    1.25734181362697
H           0.99123006676728   -0.67216760028742    1.71344908204286
H           2.68028496435534   -0.47029133698058    1.88712536435266
H           1.99633808295632   -0.94016194589148    0.37037034952179
