    26
        -50.47229293  Gyration_radius:  2.48032523355 Dipole_moment: 1.990
 S          -0.18723652646767    0.29194383783716    2.25222023206204
O          -0.41288146753323    1.23472746411197    1.16080888249316
O          -0.96100728152921   -0.92071596957734    2.08117327096318
O           1.22580596820904    0.06148137234914    2.48214480920122
O          -0.73055179207539    0.98539389963811    3.56967257940578
H           0.00797768852178    1.53425298661372    3.81094670102398
H           1.78906240125825   -0.72169148733913    1.20457596013041
O           2.14708245155926   -1.12723362695398    0.37385123452263
H           2.79711160282374   -1.77265410582752    0.65595273995355
O           0.26130132251708    0.89022922189868   -2.56869812137474
H           0.56570405660566    1.36217410314588   -3.34398104859768
O          -1.99786830614844    1.21353584563136   -1.01442158698177
H          -1.30994041975025    1.22372694150522   -1.70420660184299
H          -1.52605456606355    1.43484152964917   -0.18824419622723
O           1.67375756879804    1.50472731435335   -0.46710184148779
H           0.83773243622517    1.19193734224461   -1.80851652236689
H           0.95180255508652    1.53511596857636    0.19498641124028
H           2.16032924623847    0.69541761734466   -0.25872100906847
O           0.39759320160694   -1.70291104508736   -1.65415050972694
H          -1.00267244211065   -1.62570447032845   -0.89551666976824
H           0.39187768371370   -0.86595704295498   -2.15275102572836
H           1.06465298892024   -1.58146550635824   -0.95220349964225
N          -1.85538380410853   -1.31780786204295   -0.34062579267452
H          -2.62730037126585   -1.96744483403764   -0.43294411618788
H          -2.10382727266805   -0.33732000714708   -0.67483143415672
H          -1.55706691235387   -1.21859948720182    0.67058116488297
