    26
        -50.47229098  Gyration_radius:  2.48089082446 Dipole_moment: 2.001
 S           0.69605914348724    0.64806503013049    2.07064374973388
O           0.89007041849022    1.28129435369262    0.77012939802830
O          -0.70536212745734    0.39647265622469    2.33849432863311
O           1.54570051963951   -0.51539800110674    2.23751915131952
O           1.18018553291723    1.69052549073484    3.16203367555908
H           2.11175387792786    1.50192398551096    3.19925346262326
H           1.03782454434307   -1.62608914296228    1.20256984155116
O           0.77332967126734   -2.27400482697792    0.50031860157562
H           0.85154968626219   -3.14143028778913    0.90046855974746
O           0.07581941075779    0.03838092650900   -2.73117269628799
H           0.38890991487534    0.01638695737398   -3.63558505334627
O          -0.78747925183114    2.13483999422715   -1.15484748408252
H          -0.50986601563897    1.53797304039434   -1.87308045899508
H          -0.09011573732946    2.04992685344033   -0.47645394081127
O           2.02945253154799   -0.30009471705282   -1.04053461440142
H           1.74876742897080    0.34405611127388   -0.35732894194719
H           1.85566936591784   -1.16493325583814   -0.64399253267748
H           0.88116011912537   -0.07922073525646   -2.14912407784852
O          -1.36161805981617   -1.64950674481578   -1.09913326425779
H          -2.03779996805201   -0.46060452336727   -0.27908832752259
H          -0.92837228348016   -1.16110254860370   -1.82230485642611
H          -0.63555909761734   -1.96267961410886   -0.52718507052908
N          -2.24545248492787    0.44916400513479    0.22971704585443
H          -1.83077401212207    1.23391607794940   -0.35914627916442
H          -1.69779432224900    0.43823110578064    1.13613734789767
H          -3.23605880499265    0.57390780951319    0.40169242578823
