    26
        -50.47229099  Gyration_radius:  2.48099749332 Dipole_moment: 2.006
 S          -1.52093693630756    1.51781707517694   -0.75907247135264
O          -0.17524462150290    1.71558885848873   -0.23001886379975
O          -1.52897586826394    0.57596510698438   -1.86002358286673
O          -2.47353503051591    1.20663121421228    0.28934369920223
O          -1.98458976086223    2.91030452237094   -1.35759481000050
H          -2.34085623184424    3.33478476466027   -0.58438210877284
H          -2.08576511847764   -0.23241035012363    0.87380270932641
O          -1.78705115005998   -1.08249651100844    1.28733139480940
H          -2.58683973730719   -1.56212911173512    1.50861682842255
O           2.23177665306641   -0.74354048332848    1.39045040625236
H           2.88304811589426   -0.84280620010518    2.08501463432803
O           2.25166812001465    0.77393911298597   -0.91648294495336
H           2.45809530752712    0.28012418868962   -0.10244653891835
H           1.48327102511927    1.32980935162314   -0.68291802405399
O           0.36560441623246   -2.36893494258438    0.18463207238419
H          -0.44207690004937   -1.99799702882538    0.58767602361711
H           0.48275657363720   -1.64207641169417   -1.22963987274756
H           1.10632791790117   -1.96347476526083    0.67055373585249
O           0.19838727798400    0.67610012620590    2.19004203189658
H           0.04594357559044    1.19255413909579    1.37118516778505
H          -0.53569244537243    0.04715547408913    2.22006616822219
H           1.49885134001575   -0.17634880211964    1.76770059366658
N           0.59447523987273   -0.93676971005315   -2.01695901535991
H          -0.28441851897608   -0.34637911041126   -2.04179627402037
H           0.76069255417708   -1.38402141585906   -2.91069179166359
H           1.38508419243181   -0.28138910154103   -1.73438919724151
