    26
        -50.46913529  Gyration_radius:  2.47625719498 Dipole_moment: 4.000
 S           0.43459110726313   -0.08334821087219   -2.35921891450654
O           1.32926611457638    0.47201395659810   -1.35222498302289
O           1.06883516112863   -0.56489598067023   -3.54052202984155
O          -0.51810659987051   -1.01120997929477   -1.73381657831005
O          -0.51146943719754    1.14049962520539   -2.80353145096399
H          -0.08011721238720    1.42163842073013   -3.60238488213283
H          -0.20166993466667   -1.96304594869844   -0.43556210452509
O           0.82238562723862    0.83418576942999    2.44644696107952
H           1.34696377723777    1.06437533797562    3.21337544053905
O          -0.03548167500990   -2.46650127901506    0.39728914632368
H          -0.14094129106720   -3.39243922456869    0.17534801732751
O           0.19716067488960    2.29564508472055    0.19147611041755
H           0.74416781246918    1.77532710319298   -0.43533783481192
H           0.46356049608446    1.98581664043308    1.07628557483568
O          -1.40471982639089   -0.70844787395081    2.03345438956489
H          -0.67873435614709   -0.15529816402090    2.37763604282210
H          -1.83757744421441    0.13649294119887    0.74406632584406
H          -0.96923838725930   -1.47147902709758    1.61420157029155
O           2.11514056703373   -0.78933996292025    0.87372456454047
H           1.38726687341397    0.22015334261650    1.89188768635350
H           1.52443222732691   -1.55657930913126    0.81730898595962
H           2.00603030100264   -0.32776038438105    0.01884928164684
N          -1.81340307503952    0.66480317091761   -0.17962643845448
H          -1.11588940819688    1.46895170190970   -0.06476385368873
H          -2.72700491043073    0.99699794939802   -0.46547265172912
H          -1.40544719180179    0.01344430028208   -0.89888837559295
