    26
        -50.45807544  Gyration_radius:  2.42099720293 Dipole_moment: 7.660
 S           0.72932997226630    0.94962938324868    1.84719284300226
O           1.30279069648027    1.65086650288323    0.70753090978600
O           1.12607916724156    1.41039707522348    3.13182810761934
O          -0.85182946748382    1.08698237241895    1.70810421062192
O           0.92292147284498   -0.52353684854579    1.68660070710517
H           1.44848155565029   -1.28019045387245    0.35488091691053
H          -0.99163255629001    1.80141270065572    1.02864216016691
O           1.64051583809135   -1.79555196921294   -0.47139341105429
H           2.35025293472118   -2.39933672971316   -0.25025444094887
O          -0.90090520286186    0.67264560281556   -2.14859921802839
H          -1.08422161704955    0.86848667045350   -3.06829493140167
O          -0.90903101871236    2.72488506214776   -0.27134659210095
H           0.05221249546719    2.71045836146303   -0.12072551046505
H          -1.06868604040170    2.09537933131429   -0.99731125564325
O           1.64638820927881    0.65602996509634   -1.71187622296499
H           0.10201685672027    0.69358043144699   -2.05084477965261
H           1.65494295798992    1.10807156029371   -0.83887863267084
H           1.84648299642413   -0.26961862764022   -1.50278106719316
O          -1.01415277045359   -1.84677518637431   -1.17248337618972
H          -0.05301728412954   -1.99309292173635   -1.10493443105290
H          -1.37926213802249   -1.70217984510028    0.32076542228622
H          -1.10733538147723   -0.95760737798106   -1.57630540613657
N          -1.40231111546705   -1.49893120558927    1.37996698600006
H          -0.39129404990203   -1.14697183010091    1.61712314447216
H          -1.66372715286489   -2.31398255076494    1.92396558390495
H          -2.00500934805406   -0.70104945282951    1.57942828362598
