    26
        -50.47072349  Gyration_radius:  2.48643213396 Dipole_moment: 3.609
 S           0.00844222994041    1.23150962212599    0.02887383987153
O          -0.95412140331526    0.60534890504841   -0.88532421433650
O           1.32843952676052    0.62866996646897   -0.11993964833635
O           0.10294939558513    2.72866439686614   -0.33536348173280
O          -0.46545612102675    1.14085530561954    1.40317992436452
O          -1.12628389163590   -1.93285111886259   -0.38491606743426
H          -1.51747718741046   -2.35390912801670   -1.15231894498726
H          -1.07271609199759   -0.96561102054165   -0.60217706373490
O           1.45684667963398   -1.91534695980194    0.55987608622874
H           1.59552879859794   -1.00862620457319    0.20559392151310
H           0.62674549350099   -2.20726184689887    0.14517623297054
O          -2.08937834336387   -1.21894667480416    2.09129556579852
H          -2.05740047599616   -0.27224837554695    1.90123033791085
H          -1.93153526091033   -1.65079555616003    1.23334878599059
O          -0.26773762271137    0.97407205990626   -3.40812007731748
H          -0.57632362428357    0.77577915861677   -2.49644267294505
H          -0.94630942084682    1.52215567034753   -3.80582908118254
O           1.77898467617492    2.24488987395188   -2.21066929854102
H           1.18663613511832    1.81672922374327   -2.86392982597345
H           0.75578381135083    2.73226762611741   -1.09566433340240
H           2.06047473855743    1.53330642730312   -1.61491473799383
N           0.44738336727253   -0.89513179337845    2.72646160131613
H           0.27400453838496    0.06459429227650    2.30805894124146
H           0.98334089837470   -1.43681698888026    1.96947274272163
H           0.92507175563723   -0.85904988284627    3.61910831266716
H          -0.52589260140774   -1.28224697802964    2.78393318532061
