    26
        -50.45807539  Gyration_radius:  2.42107380996 Dipole_moment: 7.661
 S           0.35813723625764    1.17869952913540    1.82468885322601
O           1.47888956878221    1.37908253625917    0.91736903621301
O           0.44072548634143    1.84069608439116    3.07963964995379
O          -0.93986729091587    1.68437045080943    1.05163738724807
O           0.07718147990641   -0.28188989481523    1.96954204949418
H           0.71829916314604   -1.47551568802586    1.08248641010057
H          -0.59391271991050    2.20416059265886    0.27590964340975
O           0.98294481991793   -2.22269868836593    0.48517308980654
H           1.32845343124023   -2.91047588516269    1.05503954981035
O           0.14645438700770    0.29228780121352   -2.40248144969152
H           0.35550581176609    0.27806953964910   -3.33728882155096
O           0.22345560386244    2.69582838888221   -1.00454810943560
H           1.01458513240446    2.47044895192493   -0.48470494899091
H           0.10686207396253    1.96149327326715   -1.63375816023647
O           2.23704139155752   -0.27518893212934   -0.99287549957692
H           1.00349251616357    0.07484688956926   -1.91875208966140
H           2.11148454549871    0.37292262836258   -0.26433062055629
H           2.02695706934782   -1.13156855099112   -0.58908658744793
O          -1.13875606246723   -1.75814782557946   -1.19563032325281
H          -0.36586448835862   -2.12880331251545   -0.73199881263938
H          -1.90235629107689   -1.13293623243243   -0.00806376424661
H          -0.78249814324076   -1.01518920263334   -1.72808058868463
N          -2.20196761872561   -0.65798205336669    0.91297532986492
H          -2.52503291445685    0.29313305606337    0.73803056063733
H          -1.26997333219467   -0.53380465659746    1.47709487578388
H          -2.89024086581442   -1.20183878957115    1.42201335042363
