    26
        -50.44541508  Gyration_radius:  2.4914138847 Dipole_moment: 6.416
 S           0.35406430647882    0.66373085788017   -2.37876075970439
O           0.30321596955938   -0.76392039298642   -2.23493053431558
O          -0.02731622987798    1.22563219737789   -3.62052126597120
O          -0.53788121403223    1.27494690421586   -1.22384555366826
O           1.74236200215114    1.18437250770353   -1.96561811612974
H           1.97011205135104    0.70416524764363   -1.11277441523344
H          -1.21678111835182    0.61488439783589   -0.91072923484751
O          -2.28554682454817   -0.29095841101640   -0.10507183156217
H          -3.12746092216996    0.15548705000305   -0.00154246864077
O           0.74337793610659   -2.11048367108917    1.11569446081581
H           1.20296986948406   -2.90570385226946    1.38667125750781
O           2.09992494943163    0.08638599817912    0.32651824355618
H           1.65497257898599    0.72055347862666    0.90430362552007
H           1.67214074297328   -0.77945348375319    0.49286637553681
O          -0.92025602620168   -2.65039892575343   -0.81289675612785
H          -1.68760858610955   -2.09939843876210   -0.61218202367329
H          -0.44112206759134   -2.14976343501407   -1.49869779139208
H           0.11631401908132   -2.38335322843049    0.38345424739417
O          -0.88197251987298   -0.14326925054607    2.08648090594935
H          -0.35021413021079    0.66291336083706    1.97584372654956
H          -1.83253670692772   -0.26494132484485    0.78851088796535
H          -0.27908870050680   -0.89468489934025    1.94569780711782
N           0.46517289031973    2.27310287854628    1.37652112633009
H          -0.18577504798125    2.83152717941125    1.91832396061903
H           0.11202563639574    2.24690645109330    0.42111769589038
H           1.33690712205915    2.79172081441504    1.35556643049877
