    26
        -50.44541481  Gyration_radius:  2.49155093548 Dipole_moment: 6.417
 S           1.62377869286894   -1.33632394754127   -1.34361503056306
O           1.27108853090744   -2.00977615425085   -0.12551241335206
O           2.02772909626725   -2.12140559601027   -2.44967082299951
O           0.38353551801801   -0.44281341900078   -1.75179809169345
O           2.67180635656643   -0.24621804745728   -1.05693921692147
H           2.34901482849282    0.23155753910022   -0.23402206641670
H          -0.45837370782834   -0.80028414158157   -1.35424682915116
O          -0.28745651417436   -0.01339655992666    2.48357418587187
H          -0.16643573853967   -0.06839017353899    3.43192832862292
O          -1.92089568823845   -1.05318075710544   -0.71511046213301
H          -2.61010736286538   -1.03545259405619   -1.38104278819506
O           1.61952043116172    1.04797651133811    0.89387497438410
H           1.03232180404396    0.55731432712288    1.50601362523953
H           1.05193686899904    1.66857440263304    0.41789808180528
O          -1.83388904158745    1.20144763504336    0.58959444916248
H          -1.19750253412240    1.74135598009566    0.09100232228268
H          -1.99131761600027   -0.19475996386601   -0.20250173906973
H          -1.37556537155646    0.90677167456363    1.39645366666210
O          -0.79816629685092   -2.37232698831702    1.50669741131324
H          -0.48801195183970   -0.94388751657174    2.17093281795603
H          -1.45755576280474   -2.19756837588490    0.82315180960675
H           0.03862035855918   -2.45687980302752    1.01354645299813
N           0.05821758501764    2.43814050418184   -1.15421431333084
H          -0.67689053730370    2.91645169895758   -1.66409072540873
H           0.24660313024368    1.56784526885897   -1.64947854556380
H           0.88799494260118    3.01522847618599   -1.24242506112686
