    26
        -50.45061089  Gyration_radius:  2.4790801519 Dipole_moment: 4.882
 S          -0.35863923768236    0.86469513650160   -2.21254540181142
O           0.75430846123315    1.79450051914991   -1.67780915422494
O          -0.13447528326701    0.62632570043068   -3.59015197975081
O          -0.13217355353832   -0.44763387839435   -1.38972947672911
O          -1.65039048958615    1.34992284890726   -1.80978886477863
H          -1.97357916662699    1.11603374082541   -0.24170264439438
H           0.86399893986102   -0.55669781886946   -1.27054264229864
O          -2.05662603599680    1.09891443850191    0.74441547947267
H          -2.90271698455754    1.50165062250839    0.94672074061233
O           1.73715201453242    0.14994688152489    1.65565352357874
H           2.26256125936355   -0.00374944343474    2.44153620036775
O           2.36945296759382   -0.41482680954460   -0.89319736833182
H           2.27421617134981   -0.25173764609283    0.07155530941589
H           2.58781532184803    0.43198692085783   -1.29510575108814
O           0.35734585205004    2.30951674694175    0.76064185174863
H           0.94637181443163    1.65533371965943    1.18494442888368
H           0.56907407265752    2.08409866351539   -0.70621308460272
H          -0.55318490705257    1.98663286985980    0.91515810767077
O          -0.57559945779782   -0.93428286621284    1.99284136526686
H          -1.19342862176706   -0.28012686277547    1.63183914260803
H          -0.66142938555117   -1.72138350210231    1.40440383465680
H           0.85855501744317   -0.32589993559418    1.80656138304944
N          -0.83169576689761   -2.88691755636379    0.12594830898252
H          -0.76377665123418   -2.20927506293834   -0.62742011284585
H          -1.71001075557229   -3.37979801089470    0.02660535295809
H          -0.08312560518293   -3.55722940598257    0.00538146159886
