    26
        -50.46913526  Gyration_radius:  2.47630369835 Dipole_moment: 4.001
 S           0.90344458560830    1.83349900232306    1.25866606155384
O          -0.31917770330748    1.10772755302634    1.57724284445715
O           1.55931780714104    2.44095659447501    2.36790075854949
O           1.76300697245719    1.01993066190401    0.38768187128505
O           0.44307671849686    3.02482896264025    0.27939744808288
H           0.38532245780054    3.74972894978303    0.89132017790670
H           1.87704603647435   -0.61646813670066    0.42833357628929
O           1.87584473954142   -1.60318591663370    0.39620559170172
H           2.77193133054824   -1.87806871317860    0.59415244657054
O          -2.03456919551958   -1.76450939254674   -0.32710773152896
H          -2.74666045376937   -2.38744029624384   -0.18129291360695
O          -2.04543483718751    0.99301971390489   -0.42200991119908
H          -2.26643026713782    0.04385372386970   -0.42681527063029
H          -1.55873596353142    1.13653030577582    0.41788242465235
O           0.25347439934811   -1.78211289675594   -1.83515607910181
H           0.89417377302523   -1.91523744253228   -1.11449221866547
H          -0.62244522763041   -1.92444247980626   -1.43012124720700
H           0.26819128544568   -0.18581865809555   -1.95963824057902
O          -0.52111552909591   -1.55301315274317    1.78126116782931
H          -0.49752149473851   -0.58081736987672    1.88206300953068
H          -1.50809585069040   -1.73297489160904    0.52461549216777
H           0.35792299103159   -1.78786330029978    1.44532923257984
N           0.21549554587375    0.85189495303833   -1.72886209084516
H           0.90160166228732    1.03186719074484   -0.95118916082133
H          -0.75915673625589    1.03620844331607   -1.32584578795581
H           0.40949297378501    1.44190659221946   -2.52952147100877
