    26
        -50.46913528  Gyration_radius:  2.4762916443 Dipole_moment: 4.000
 S           1.27119646908216    1.00499066355548   -1.77077142230120
O           1.47801763692127    1.23012322189145   -0.34617125535965
O           2.42059434281492    1.19170542050482   -2.59155252468803
O           0.54349507960692   -0.25374581757017   -1.98423412465579
O           0.19255936132867    2.11170075912975   -2.22000430345420
H           0.76060823858593    2.77635380543180   -2.59277789828182
H           0.67071862187436   -1.59382742377846   -1.04626036345092
O           0.68324629014134   -2.36482094652186   -0.42975330155274
H           0.99637074200494   -3.11149223550879   -0.94176573325893
O          -0.48124026050329   -0.15199231832804    2.66543540868502
H          -0.39102188459705   -0.18039027668624    3.61801485212396
O          -0.70137330702995    1.99186923758495    0.94250670288514
H           0.18209279689468    1.89366447213780    0.52696561455664
H          -0.68881452724299    1.38859683776050    1.70782095994885
O           1.77729910539681   -0.69489849810274    1.48864530270969
H           1.55658384937025   -1.45733390596666    0.93122605629797
H           1.83613078849299    0.05840188148574    0.86820631359971
H           0.42366115914307   -0.36081866912838    2.28972724281995
O          -1.71142200304787   -1.74202356980296    0.80319581007647
H          -0.91585245503921   -2.16398355389047    0.43351844298196
H          -1.40487516641569   -1.26796887006053    1.59869904267671
H          -1.90515981021403   -0.52171615481416   -0.21488702422352
N          -1.72906264338010    0.34377135952028   -0.80898061350620
H          -2.52739722150236    0.59718714936394   -1.37922164383064
H          -0.88574351260124    0.14360239844457   -1.40626780433373
H          -1.45061168008852    1.13304502334871   -0.14131372645769
