    26
        -50.44541494  Gyration_radius:  2.49140560193 Dipole_moment: 6.417
 S          -0.13171532744767   -0.39486841809379   -2.46013737549517
O          -0.46629427643146    0.96150511833669   -2.12857757041875
O           0.40413076228552   -0.65769838643138   -3.74342144535918
O           0.87423048190460   -0.90542665363706   -1.35068223622272
O          -1.33609365504799   -1.31434261372141   -2.19034821569056
H          -1.69509838704658   -1.03577337793254   -1.29402279157012
H           1.34826945801783   -0.14063219540560   -0.92063385805808
O          -1.29675806376023    1.66307410868961    1.34220303376598
H          -1.95635120922974    2.26310626373989    1.69140217489097
O           2.12531278261888    0.89329788477431    0.04841617980405
H           3.05446344959161    0.67396124369647    0.13417875866922
O          -2.00382988267711   -0.68159720403626    0.20552221709436
H          -1.82648761818562    0.23459464713572    0.50464214236398
H          -1.41230698084981   -1.24964454965738    0.71681689036167
O           0.18827883413185    2.88570313700596   -0.41219828543010
H          -0.75584590185834    2.19104139590973    0.68457149302173
H           1.07234110293254    2.53398372877916   -0.24659596839758
H          -0.12971041739322    2.37709798407898   -1.18083762755308
O           0.78309986948220    0.07915777217534    2.12900322333816
H           0.00272207980117    0.65689806869259    2.05658008552008
H           0.48842695394217   -0.81552114406153    1.88877522688297
H           1.68386136125384    0.62518435234897    0.90736226823490
N           0.14260723117330   -2.48378040789165    1.04451456635303
H           0.48820370020730   -2.23318009438443    0.11930851841245
H          -0.55782709981935   -3.20599691387888    0.91342550713463
H           0.91237075237533   -2.92014375621964    1.54073309824699
