    26
        -50.44639634  Gyration_radius:  2.51416727673 Dipole_moment: 3.609
 S           1.24612880275906    0.12034308927048    1.98385845591131
O           2.44051356556745   -0.20540092720240    1.25336928347360
O           1.35960275643903    0.55627231277430    3.32399801641190
O           0.47408419114490    1.20847352485918    1.16153603064144
O           0.27964520898466   -1.09156550832068    1.94696669903425
H           0.21058063776748   -1.45077885538943    1.01113677724775
H           0.84485290977680    1.28659477611014    0.23770383760238
O          -0.03686900648386   -1.99573411724719   -0.44159040895457
H          -0.31822528663362   -2.91057257455044   -0.38552831893879
O           1.45535784254299    1.42915005330416   -1.23607090716160
H           2.20748035912060    2.02164911253434   -1.18308746923489
O          -1.08044856238443    1.42628012526959   -2.36867924062502
H          -0.20217111465153    1.54114281984093   -1.97258752647523
H          -0.94353744493493    1.26076308413550   -3.30290142793950
O           2.36769481010311   -0.97642253495165   -1.29219130339982
H           2.66873176322385   -0.85713093638668   -0.37099005732200
H           1.55983953343865   -1.50918022563785   -1.21623245819301
H           1.83359565238365    0.50407394953037   -1.38122860244698
O          -2.12475648736933   -0.63715288066936   -0.92044893591013
H          -2.33390814831127   -0.27166338496947   -0.02546193313162
H          -1.87209058364597    0.13290905968445   -1.46495810226202
H          -0.87784852765321   -1.46104928573675   -0.69198164053219
N          -2.34617186635874    0.36714180715881    1.58375177912814
H          -2.12678538202693   -0.36459898111106    2.24925772130079
H          -3.13985155548244    0.88596830351577    1.93817367597785
H          -1.54544405731204    0.99048821417857    1.56418605579263
