    26
        -50.44862185  Gyration_radius:  2.41628343436 Dipole_moment: 4.691
 S          -0.08342193815557    0.09168508497613    2.07228513655481
O           1.43687197029450   -0.00722471671370    2.24264350502115
O          -0.65506361825320    0.82183724802651    3.14376911674771
O          -0.25632790907000    0.85734096209153    0.72908392094960
O          -0.64228778768635   -1.21680713473541    1.81887244493535
H          -0.17675407028084   -2.05245980879047    0.49705110910052
H           0.29419923707683    1.68587778258837    0.66130149270907
O           0.20174850596080   -2.49256843603204   -0.30268999778467
H           0.15028364815754   -3.43570518383494   -0.14063907305673
O           1.30553277552667    0.99998135069578   -1.88179031473681
H           1.63748208567138    0.93469776516589   -2.77842563795152
O           1.16545986840380    2.88659428420244    0.04108848910345
H           0.58783161390671    3.59204766558408   -0.25780691562550
H           1.37684284652422    2.34197457674087   -0.74348731788651
O           2.26647616397819   -0.76879065578373   -0.02671346058307
H           2.03673998024251   -0.06316315544750   -0.66430963982497
H           1.84775104008879   -0.32916642538726    1.36052436538564
H           1.66010689104425   -1.50797114687547   -0.22611405733470
O          -0.85340199235727   -0.45353943855316   -1.91839470199899
H          -1.57566087623761   -0.21427447573837   -1.29576703868995
H           0.42168894379627    0.52248853737730   -1.87879639107860
H          -0.50932485920219   -1.28617923522951   -1.56400783014015
N          -2.78622684497131   -0.23047115038865    0.02941902734665
H          -3.00771908393630    0.71194232176694    0.32428696592977
H          -2.19209652063660   -0.63024348179709    0.75049450226987
H          -3.65073004989014   -0.75790315390872    0.00812231064266
