    26
        -50.44639622  Gyration_radius:  2.51411243142 Dipole_moment: 3.610
 S           0.26258337933317   -1.53523369268851   -1.75399088883899
O          -0.03809454824872   -2.61545373817003   -0.85460397361982
O           0.32422443974742   -1.79577462913506   -3.14222181286964
O          -0.79082598643083   -0.40337274238250   -1.49815147170423
O           1.59592634532854   -0.87039496811506   -1.32439700266890
H           1.59852628123427   -0.70932790656005   -0.33274292106412
H          -1.29360924685815   -0.56926826712197   -0.65151316416948
O           1.63017657457560   -0.32238836200832    1.19005724914646
H           2.54330835020838   -0.26509406299227    1.47663041964052
O          -2.11798489786227   -0.84858014901516    0.69276976725451
H          -2.83434134863272   -1.44766344949977    0.47494105863882
O          -1.82611007079464    1.79015384746678    1.50837597668582
H          -2.02745649480895    0.90063265976010    1.17726534193898
H          -2.05183924245125    1.79664265799575    2.43996729792677
O          -0.24421975307600   -2.24350306835288    1.77205656134114
H          -0.10267643329436   -2.67626618878723    0.90827817604663
H           0.48022070502576   -1.60134203036357    1.84329092058102
H          -1.44937906179057   -1.38830026165495    1.22345800322240
O           0.82151685212275    2.06529592328429    0.90900648623031
H           0.87510868946864    2.17929820237322   -0.07205716300983
H          -0.13034266809794    2.09459755108308    1.12445459749060
H           1.29483913407860    0.64733323487266    1.13440525581348
N           0.88724254465258    2.03253701945356   -1.79700871531370
H           0.77205098574114    2.84131838797829   -2.39481670687207
H           0.10319596231060    1.40814021748106   -1.95663414501650
H           1.71795951850830    1.53601381509703   -2.09681912681572
