    26
        -50.44639620  Gyration_radius:  2.51417410213 Dipole_moment: 3.611
 S           0.63905181948625    0.34111382864734    2.23136213135007
O           1.96088690653969    0.70308342745738    1.79788490004304
O           0.27601806891752    0.55884925884098    3.58032286246486
O          -0.38060272688658    1.08970674295956    1.30603696614786
O           0.38243984581541   -1.15036020779344    1.89361498684315
H           0.67023969210458   -1.34683644037075    0.95135137345632
H           0.07869644754953    1.47014099774250    0.50517354529759
O           0.99029519853289   -1.70360105333321   -0.54536412450184
H           1.16673632788144   -2.64381175040105   -0.60927824285634
O           0.81942155481269    2.10328213140156   -0.76584981829421
H           1.17899559246667    2.95137479708545   -0.49944712045541
O          -1.15155279021939    1.15851105547278   -2.47918314195162
H          -0.52302560103968    1.58558027652834   -1.87586658437337
H          -0.77888924958235    1.22466909180922   -3.35986436815827
O           2.74744500355480    0.39936927724632   -0.72600279761422
H           2.77482009619039    0.49042123597290    0.24576991713712
H           2.28681901457817   -0.44143379080153   -0.87809495688502
H           1.60796343973756    1.47994045187242   -0.86369772836885
O          -1.35661479162328   -1.35742833986531   -1.44330602600005
H           0.06183707996025   -1.56584204078169   -0.96356667567935
H          -1.87889337573859   -1.27264663670148   -0.60761226136465
H          -1.39706554156328   -0.47896402605833   -1.86752652533413
N          -2.49650574160315   -0.97406847789318    0.98187104781711
H          -2.09734785169287   -0.06472375315456    1.19130212396891
H          -2.08906700435348   -1.62726633872805    1.64054589701055
H          -3.49210143380587   -0.92905971715750    1.15942462028182
