    26
        -50.44639624  Gyration_radius:  2.51415579431 Dipole_moment: 3.611
 S           1.01654964682396    2.06761209943582    0.44108105231264
O           1.99502035854092    1.80473892991042   -0.57858428773802
O           0.94401172080515    3.36243123273114    1.00415224520113
O          -0.38710034020485    1.69217353979021   -0.14628908820925
O           1.19417648467954    1.04552373573396    1.59348263912808
H           1.29014049740313    0.11721125324270    1.22121255294558
H          -0.29149855508144    1.16607161778268   -0.98952523700377
O           1.33244343733272   -1.37191531557310    0.72189714164447
H           1.78893715298538   -1.90484159694744    1.37521647867747
O          -0.13857604045206    0.34403485190417   -2.35562818743052
H          -0.02681442256577    0.97857022874787   -3.06583214432064
O          -2.03954810509419   -1.50969861263530   -1.54147182557006
H          -1.46101702946844   -0.80672395396512   -1.87698599698330
H          -1.93640184358671   -2.25839422994244   -2.13113152584494
O           2.19194882874549   -0.57073708572071   -1.76076942144375
H           0.76236239748686   -0.09203044681117   -2.22131875006206
H           2.42488374694022    0.31412004012507   -1.41977713383210
H           2.01358080190178   -1.09795641756532   -0.96551286384257
O          -1.14067224452922   -1.85554759152654    1.01147841175750
H          -1.57231777611705   -1.78253585841521    0.13873078819732
H           0.33833644370891   -1.61731343942651    0.80830552053861
H          -1.43979631541812   -1.06312247478581    1.52228799950241
N          -1.71097886898426    0.49329841697902    2.23053802238945
H          -0.96146479744694    0.71630382264657    2.87483431178874
H          -2.58912666345825    0.72171945325267    2.67945276627182
H          -1.59707850494226    1.10700778104429    1.43015654192782
