    26
        -50.44639629  Gyration_radius:  2.51411651254 Dipole_moment: 3.604
 S          -2.30796570668867   -0.04603204412432   -0.41547428533461
O          -2.05781641950821    0.11167399407447   -1.82215681508314
O          -3.61502169273080   -0.36801337089863    0.01671803273505
O          -1.31557450564651   -1.13491409755571    0.11941700219532
O          -1.85099721843093    1.23447934608267    0.33005478988908
H          -0.93916912911710    1.51234475229658    0.01275324975062
H          -0.60138196213404   -1.32636912756495   -0.55165965775132
O           0.52979844030661   -1.65133585761402   -1.63778791682701
H           0.16948906429006   -2.29739740909363   -2.24795433653638
O           0.52828805487450    1.94312210640107   -0.34884653668909
H           0.62927512649826    2.87973627250651   -0.17052662575224
O           2.52221345188089   -1.53644579907610    0.29370931175786
H           1.82244994464284   -1.68882482176266   -0.36089478995111
H           3.34570389451122   -1.46721067775562   -0.19194403432211
O           1.67599139140284    0.72810958158152    1.55933470279561
H           1.04446512701047    1.46100081674313    0.39736922768902
H           0.90479273286017    0.46326785439660    2.11924227657756
H           2.04637643828420   -0.10617150644378    1.21279979788869
O           0.36879637466677    0.65431027543649   -2.76929324617910
H          -0.60315832480486    0.59359690683361   -2.69834457194134
H           0.62698974382287    1.25740820532908   -2.05388224686969
H           0.57227336415377   -0.77806059481570   -2.14331095106917
N          -0.61570614632848   -0.02552936657546    2.78761434338699
H          -0.67736722322869   -0.44006688882028    3.70907625137877
H          -0.92693941684297   -0.71450881590246    2.11046373716089
H          -1.27580538391169    0.74183027635491    2.74352327122002
