    26
        -50.44639618  Gyration_radius:  2.51411931178 Dipole_moment: 3.609
 S           1.80079743741273   -0.88101548731496    1.21781756437553
O           2.70088861800577   -0.50196109751857    0.16313573253476
O           2.33556732094837   -1.31934045557853    2.45102059440763
O           0.84857395557861    0.33516174860058    1.48325790008960
O           0.83128469421110   -1.97150746693975    0.69320933075205
H           0.46470734389709   -1.70637127196728   -0.20381277078413
H           0.91797139795624    1.00906809293391    0.74975927301067
O          -0.23724613153666   -1.30835902482813   -1.55227281533655
H          -0.51744442659482   -2.10653729531203   -2.00350285917092
O           1.04836238447214    2.10194082517886   -0.41374200246005
H           1.79890392031606    2.66095728136515   -0.20465327889457
O          -1.71205375591539    2.35277723515919   -0.58937802093120
H          -1.87579419376934    2.80155153652014   -1.42050239337590
H          -0.75107999700612    2.35326438032456   -0.45514110136875
O           1.82066675584693    0.39832789353872   -2.18103831758062
H           1.05851776169690   -0.19972562129942   -2.24249258298588
H           1.33336941404746    1.52514518945857   -1.19222960116655
H           2.39498442380763   -0.00707518603580   -1.50338065073631
O          -2.32503621653194   -0.30507348198762   -0.51871550524539
H          -2.22783504709187    0.66644247206390   -0.51174983557469
H          -1.09640590304951   -0.87968036837639   -1.18622190556197
H          -2.23509154272840   -0.58727562608528    0.42502108607009
N          -1.72853620031590   -1.04843166497786    2.01502016696346
H          -1.33666189272146   -1.98260212241647    1.99691996275773
H          -2.35714318452519   -0.98707794559354    2.80617166390764
H          -0.95426695641630   -0.41260254890868    2.17750034630237
