    26
        -50.44639632  Gyration_radius:  2.51432186131 Dipole_moment: 3.606
 S           0.56938534916139    0.92710461636304    2.07887500242316
O           1.93288438849639    1.06223859134995    1.64423390475736
O           0.16924733597158    1.54785605382476    3.28443698325172
O          -0.34787570975886    1.44097853450366    0.91643848758778
O           0.20865062393831   -0.57852798577210    2.16415562420853
H           0.51959913484208   -1.05554123565714    1.33640728698152
H           0.17344754170206    1.54656875299987    0.07140609464223
O           0.87347604701333   -1.84711592201250    0.02574863242652
H           0.97802213011604   -2.77504895773248    0.24313540247864
O           1.01476644588279    1.73929288892825   -1.27774159561020
H           1.42930785266602    2.60319323478861   -1.24089876451036
O          -0.94696930989925    0.46418060265823   -2.77407010610016
H          -0.53175056615665    0.24946604520656   -3.61091826893184
H          -0.31417389819175    1.00717025383888   -2.27793290341289
O           2.79774813761316   -0.00184971664111   -0.63590321169984
H           1.75464384304783    1.06482776756048   -1.14507567693629
H           2.79151819124292    0.36235845838222    0.27006082001868
H           2.27876221650902   -0.81962394122755   -0.57200043610789
O          -1.39852778988805   -1.62770501991286   -1.08116975331568
H          -1.94772166152897   -1.27207182325941   -0.33936545899057
H          -1.35045833219443   -0.90797786781761   -1.73919380854015
H          -0.02245029918801   -1.77767411132832   -0.47230220310942
N          -2.60603419861894   -0.48838569632738    1.05714253723416
H          -3.60134226349764   -0.33020158755050    1.15234412444109
H          -2.14498197956259    0.41517533130928    1.02372978899817
H          -2.27917320002432   -0.94868724748685    1.89845749731395
