    26
        -50.44639630  Gyration_radius:  2.51432049576 Dipole_moment: 3.606
 S           1.22241076882616   -0.90580735317806   -1.78624016529046
O           0.37810144354527   -2.06910804537252   -1.77294746681164
O           2.11936643991538   -0.72178707495813   -2.86346798926695
O           0.29240459066118    0.35143837656342   -1.68178198964074
O           2.03147391072241   -0.84837438832142   -0.46463264215404
H           1.42569928169245   -1.01800856724149    0.31864972929393
H          -0.63455370498414    0.08817567370089   -1.42008149200260
O          -2.12717847792963   -0.33662933581977   -1.02450721351013
H          -2.58082666143421   -0.58872953640542   -1.83083543599046
O           0.52346301138095   -1.16143513369626    1.59755956054058
H           1.06312512471583   -1.47903657460699    2.32359638232594
O          -2.28092805581060    1.68520424248344    0.87328951438399
H          -2.27444496930075    1.05261159751099    0.13761954215829
H          -3.03589076242478    1.46519023722840    1.42142798623638
O           0.17657774517039    1.31892093094544    2.00131045351978
H           0.83185648798117    1.71584096986213    1.37569078901141
H          -0.70104611753079    1.56612479158517    1.65204785197070
H           0.34106990108423   -0.17073358746635    1.79958695232105
O          -1.39731285504763   -2.50074555643799    0.16142164463821
H          -0.77056795575292   -2.66079676086699   -0.57000131220375
H          -0.84431632124999   -2.16644147227945    0.88573927158601
H          -1.95878104423005   -1.19240373431675   -0.51535034685313
N           1.90333290428714    2.12564616586358    0.07872376114747
H           2.22291075368992    3.07604414836285   -0.06028050034970
H           1.35834100500517    1.85436376065190   -0.73336942742244
H           2.71571358712603    1.52047621619017    0.09683254231623
