    26
        -50.44639631  Gyration_radius:  2.51427316137 Dipole_moment: 3.604
 S          -0.37362812265522   -2.27167857521303    0.45181240604940
O           0.95768351438481   -2.57868123704610    0.00516888437433
O          -1.12513950674581   -3.27389040958074    1.10729175531241
O          -0.27831305750510   -1.01760406946063    1.38710661071671
O          -1.20489820228813   -1.74654990680178   -0.74717334507418
H          -0.67838080272881   -1.06068541510608   -1.25867943181461
H           0.61623427074356   -0.58125792432175    1.30759642438351
O           2.05968828635917    0.10430513654723    1.19844624465772
H           2.65023936528063   -0.36532526933802    1.79023650551008
O           0.03676744649494    0.09989328617020   -2.04081718271257
H          -0.31273472188436    0.13352470165561   -2.93297901967624
O           0.92761776361845    2.63296931053979    1.00587826963891
H           1.62787461517175    3.20290417804052    0.68390424126963
H           1.32981335599454    1.76846754914712    1.18562241015875
O           2.49923965584705   -0.76470936290940   -1.18370107916747
H           2.12711599575728   -1.62541160475956   -0.91142621014485
H           1.78913382652593   -0.34421994784907   -1.69468628112483
H           2.33065779167438   -0.15803012483694    0.26164320989209
O          -1.04123871381509    2.01998231614678   -0.78125423504308
H          -0.40570705136896    2.34388362994688   -0.11455341818042
H          -0.36090766059289    0.91365182384949   -1.55571844388729
H          -1.74607952947398    1.55141287628867   -0.26940783240276
N          -2.74481543717171    0.46243374521036    0.63313403146428
H          -3.50986307889394    0.79944827630177    1.20396077271093
H          -2.06701135467120    0.01869303561298    1.24453080379636
H          -3.10334863802505   -0.26352603824313    0.02406389928488
