    26
        -50.44639632  Gyration_radius:  2.51419937447 Dipole_moment: 3.603
 S           0.55649801441421   -1.92642146461963    1.21763704338291
O           1.68079018638587   -1.23829262226058    1.79092566179497
O           0.18001627999466   -3.18299726582355    1.74502805286319
O          -0.67392276709474   -0.95820726979333    1.28964949273494
O           0.78122388591153   -2.08700297972566   -0.30818759900829
H           1.09089264993601   -1.21762100827385   -0.70517663193768
H          -0.38309200010826   -0.02863774820757    1.50963652434586
O           0.08079568296277    1.45710071620483    1.88688351059240
H           0.15797091120787    1.50340921242101    2.84157873263580
O           1.46736410879009    0.13257238441414   -1.41593805003721
H           1.93441221916574   -0.06491918921589   -2.22964240197394
O          -1.52360793146125    2.54480184838027   -0.10202642169778
H          -1.05127376513787    2.18129267925739    0.66357967336599
H          -1.21275851557130    3.44410436770194   -0.21804346951873
O           2.45228572871266    1.15964519313039    0.93312272925848
H           2.47669532829269    0.27134702773796    1.33770780233321
H           2.28045662508709    0.99295251180651   -0.00759542714904
H           1.02412229670289    1.46511503445563    1.52630582349994
O          -0.88970930499692    0.78507172355980   -2.08889326592054
H           0.53294231172376    0.45016109539457   -1.70196882176081
H          -1.38943464443717   -0.04627584992692   -1.89535702890826
H          -1.21968531195054    1.44402025837178   -1.44842777939338
N          -2.02670656210818   -1.53946857182026   -1.29370017871416
H          -1.41408554780926   -2.30515868280840   -1.54848815972392
H          -2.97928226203295   -1.82173552761276   -1.48778688802931
H          -1.93290762678373   -1.41485583286589   -0.29082291309059
