    26
        -50.44639630  Gyration_radius:  2.51435028996 Dipole_moment: 3.606
 S           0.51903485079242    1.85526759088523    1.33952101847212
O           1.90525258088218    1.47507671122096    1.32759954415279
O           0.15980509755083    3.12168058209822    1.85526638917689
O          -0.01348691008839    1.73783503519362   -0.12993571249352
O          -0.29940257207610    0.77400596758425    2.09139375798171
H          -0.03446996610984   -0.14191630768623    1.77473061502045
H           0.63218981786282    1.23755007396141   -0.70419547158211
O           0.24378430264150   -1.59723639964352    1.25106526125264
H           0.02244500784840   -2.22287009412211    1.94304192020206
O           1.67908835019776    0.45620712517564   -1.63097743786164
H           2.33104271496971    1.09136017717841   -1.93273653560598
O          -0.34069356486969   -1.09611187048760   -2.73707329298660
H           0.10498611207872   -1.82753622038788   -3.16746561942028
H           0.34980097230131   -0.48318954951723   -2.43874969085029
O           2.72041487793561   -0.85106351584122    0.32586929517143
H           2.14566883282682   -0.12645981371871   -0.95074776638189
H           2.69513541066606   -0.03063715552287    0.85478780842577
H           1.97005117790741   -1.37314886972768    0.65227102389926
O          -1.66068762583099   -1.68432423174264   -0.42248645820826
H          -2.17460062768405   -0.87429139874480   -0.18140207444128
H          -1.29623286411838   -1.50780254596050   -1.31093703648364
H          -0.50359049265963   -1.68121876624762    0.55107929163091
N          -2.75385974206073    0.67695063037938    0.32442422119981
H          -2.03561145328721    1.29469379611086   -0.03979511284095
H          -2.71237599664832    0.74929229685677    1.33417427889941
H          -3.65368830103623    1.02788672274355    0.02127780365600
