    26
        -50.44639631  Gyration_radius:  2.51427541469 Dipole_moment: 3.604
 S           2.22692240133833    0.19750047790797   -0.71141128238134
O           2.38011401037584   -1.22912659783747   -0.62539297042127
O           3.24183337696098    0.95978081462317   -1.33409711233790
O           0.86539183876292    0.48147285818941   -1.43401851760755
O           1.99052262242374    0.77116255577743    0.70963083035540
H           1.30203017871291    0.22252300499327    1.19361835526107
H           0.31067648229773   -0.34704251988661   -1.48677251972248
O           0.15343555453382   -0.51641737286288    1.97131177124152
H           0.28635940008784   -0.39132576445187    2.91254451380200
O          -0.56867687160226   -1.68154548016492   -1.59325985728854
H          -0.27337371587518   -2.16342800620374   -2.36792400101402
O          -2.84944230953454   -0.33571561595764   -0.75680069131688
H          -3.47480020989497   -1.01973816924669   -0.51206236548512
H          -2.08635855273734   -0.78291534109641   -1.15573554863642
O          -1.72198310554406    1.05536945253673    1.30225622265914
H          -2.22076229274073    0.64308844156764    0.57112987787412
H          -0.64432604801935    0.08095024700589    1.72151608494446
H          -1.21919026138371    1.80177878809182    0.89186944090191
O           0.51569505149360   -2.78406565702994    0.46383016522623
H           1.38203039814709   -2.46278764599954    0.14813731773957
H           0.27668439797667   -2.17341380453270    1.17947345186952
H          -0.23510518362161   -2.20011495909885   -0.79347468951830
N          -0.11248469756078    2.85144317996148    0.07251906672411
H           0.14164859406161    2.29335116143495   -0.73623308919637
H           0.73066669050005    2.96290142854109    0.62315663586740
H          -0.39750777925719    3.76631449371751   -0.25381108954633
