    26
        -50.44639633  Gyration_radius:  2.51420802793 Dipole_moment: 3.603
 S           0.68120626738668    0.76818761666551    2.10939730237503
O           2.05632146505182    0.60359846565125    1.72445923943053
O           0.38229895237804    1.45490480464919    3.30853142455043
O          -0.05765195739877    1.47702125163652    0.92267600044671
O          -0.00330517333220   -0.62218486634194    2.16167163676354
H           0.22582217892903   -1.15133134141120    1.33897640089433
H           0.50528063904590    1.47022807900534    0.09798423962765
O           0.44582018665733   -1.99398130199809    0.03073670575174
H           0.33648145764249   -2.92357926164699    0.23846780473076
O           1.41828805712135    1.48142021091848   -1.21775732770508
H           2.01060731964249    2.23280748796217   -1.15356651800535
O          -0.71810871014812    0.67610365694301   -2.79911084308314
H          -0.00092195012062    1.06459730370556   -2.27369455903824
H          -0.32874211788679    0.38000827025488   -3.62343518228835
O           2.75046031464306   -0.61278057585606   -0.53815072719765
H           1.98662827106784    0.65999010284311   -1.06873661102727
H           2.79136045246495   -0.26118052112566    0.37182382776190
H           2.06235930801727   -1.29656282663639   -0.50316649633272
O          -1.68024995121682   -1.27435808834570   -1.15098483284537
H          -0.39424473006313   -1.72656412568525   -0.49706908213469
H          -2.16508863439363   -0.81111960036707   -0.42385592190650
H          -1.45119271497693   -0.57919336344164   -1.79717109413593
N          -2.68724148141342    0.08928739125429    0.95962083699643
H          -3.62630787602279    0.46224532421625    1.02128626312681
H          -2.03785924326445    0.86927308692513    0.95564295946162
H          -2.50202033984026   -0.43683716972274    1.80542455382726
