    26
        -50.44639630  Gyration_radius:  2.51429436596 Dipole_moment: 3.604
 S          -0.77956434585476   -1.04474758377623    1.95074992710159
O           0.31797894832093   -1.97114559947563    1.89235166477554
O          -1.58243486150907   -1.00537050456133    3.11377761988986
O          -0.20049588706867    0.38763770084259    1.68688324995638
O          -1.70541463454121   -1.27399491787055    0.72825330096520
H          -1.15760639527480   -1.34831753957560   -0.11065264772033
H           0.73196650490251    0.33544719325633    1.33366236239132
O          -0.37996644995719   -1.36083288731919   -1.47622354876359
H          -0.89568179436169   -1.84720015079698   -2.12177349254681
O           2.23625622755495    0.25255088496281    0.78998688443532
H           2.81601913755178    0.17254272332113    1.54959350866543
O           1.70159869535775    2.11563338555697   -1.19904955112439
H           1.92316976367534    1.55285398383269   -0.44037442278291
H           2.42793615462100    2.04222875159807   -1.82021280414223
O           1.94312225713642   -2.10027066633961   -0.21044912676195
H           1.25596886332184   -1.95884192909740   -0.88126631811100
H           2.23235222194763   -0.65193850337842    0.34079852607086
H           1.45050014745402   -2.35357263735680    0.59367875483958
O          -0.69194338271065    1.09665572838390   -2.02269001924902
H           0.12884757791642    1.56974929617367   -1.78641850140297
H          -0.46626802211888   -0.37158867530193   -1.73994672316007
H          -1.35879593180439    1.36823265237334   -1.34452945663470
N          -2.36396882302293    1.59952084908842    0.04615123765864
H          -2.89067192013865    2.45366031875923    0.17940502019634
H          -1.69136785758838    1.52266100400141    0.80233013919299
H          -3.00153621410788    0.81844710313318    0.14596436614573
