    26
        -50.46255795  Gyration_radius:  2.38632144885 Dipole_moment: 3.885
 S          -0.56422767758252   -0.18802386957871    0.60418495119569
O          -1.09134782062008    0.93878030889527   -0.17340877084050
O          -0.47916808582531    0.09388631429283    2.01804918924112
O          -1.57579534218137   -1.35724787349503    0.38230300085261
O           0.71562862241913   -0.62900175560268    0.04857933665007
O           0.64466778610224    2.49031119484352    1.82919490091776
H           0.23550819402151    1.63056798099995    2.05638690842658
H          -0.07548930327653    3.04970088064770    1.53148885347779
O           0.62389762177329   -0.48463424280393   -2.60953672871220
H           0.78045279641729   -0.76448339495988   -1.68172779032111
H          -0.33958242188576   -0.61569994530831   -2.75239587189640
O          -2.02498754459285   -0.50828449821147   -2.26679168660054
H          -1.89327855354158    0.09805507779948   -1.51657540102831
H          -2.40724145641474   -1.30018068260235   -1.88215053599477
O           2.28798608022995    1.53050338077101   -0.02093596330704
H           1.96990696553178    0.61227526474890    0.10034634149433
H           1.89377278041681    2.02810770406572    0.73171780829241
O           0.61069041432389    1.88118717585249   -1.82456181651772
H          -0.16819084552900    1.67962842140316   -1.20585361050113
H           1.43815908477694    1.86278878254523   -1.14587811641885
H           0.69324966926390    0.95534896351629   -2.34624323522877
N          -0.21060008177474   -2.72537526288371    2.10215512446363
H          -0.09648764418336   -1.82542538589300    2.56116938508816
H           0.67170344641126   -2.96293119334587    1.66717963907704
H          -0.42927419150580   -3.42718386099129    2.79782316109830
H          -1.20995250277315   -2.06266948469174    0.99548093707895
