    26
        -50.46151603  Gyration_radius:  2.63562337838 Dipole_moment: 5.364
 S          -0.43783472172567    0.72420010762930    2.49856274430977
O          -1.84357527662061    0.35664621398203    2.33328530327158
O           0.38549166722837   -0.28755001761017    3.08612457209218
O           0.08753097167739    1.23197614372470    1.21995795728138
O          -0.43589327633485    1.97135009423346    3.48172182087618
H          -1.05762368837524    2.56881882333162    3.07746456391727
H           1.06289932618404    0.00104790697924    0.82675969194289
O           1.52817831563146   -0.86712917890757    0.75368830758246
H           1.54080486265411   -1.15040365351821    1.67757775691613
O           0.67974688240579   -0.04612102580300   -2.70051558114593
H           0.82961539492132    0.17936116209449   -3.61928046955051
O          -0.96719617080062    1.62565116075430   -1.20561381181961
H          -0.50189360769572    1.69224463354828   -0.34794623800288
H          -0.35627154400700    1.14418755279460   -1.79171836142370
O           3.00802501365969   -0.40110173550493   -1.44804935536850
H           3.49274602350737   -1.20859015729173   -1.62764460416869
H           1.56917536232431   -0.09474710897863   -2.27474340035791
H           2.62494565459923   -0.50783542689473   -0.55452529213339
O          -0.30445156967051   -1.95258245264148   -0.90672808977405
H          -1.60592240005256   -1.14850319438507   -0.37464427165102
H          -0.04695132170985   -1.45174356747797   -1.69654771011432
H           0.38198829378443   -1.72991628514532   -0.24262992821417
N          -2.27966723125954   -0.37442806077857   -0.11422063602193
H          -1.95489903539458    0.48265615105908   -0.65204048088475
H          -2.15852247499039   -0.13400248357865    0.92032601492614
H          -3.24044544001231   -0.62348562167024   -0.31862050231132
