    26
        -50.46151540  Gyration_radius:  2.63562312189 Dipole_moment: 5.368
 S           0.51920383606426    0.78933186840341    2.46349914718369
O          -0.91799745163324    0.92133645906184    2.69913679086792
O           1.08954793433455   -0.45055455865969    2.89243455014709
O           0.81455798329421    1.11018799877354    1.05683395923502
O           1.19960796159281    1.94631366355010    3.31219029731888
H           0.73661326281072    2.72792478606791    3.02642093659995
H           1.18496987601974   -0.37135784069881    0.51984308246824
O           1.30102483991886   -1.34419836721260    0.39450108061617
H           1.47038462451432   -1.63038892813892    1.30191566118742
O          -0.13429798349274   -0.23249800877039   -2.77222706966757
H          -0.17468431921061   -0.05805566022690   -3.71311571693143
O          -0.66653476166181    1.87440742776751   -1.03542961573042
H          -0.43228673504077    1.22341599893145   -1.72102234862854
H           0.00894603995190    1.76641606238003   -0.33661915213193
O           2.19641248153934   -1.36798608415562   -2.14560893371765
H           2.32253980596363   -2.28838096797736   -2.38267632596625
H           0.77022744144753   -0.58398452601208   -2.59014833111597
H           2.05655395393125   -1.35395387460671   -1.17771978274380
O          -1.16543636679131   -1.72038045494987   -0.64027806208824
H          -0.29104102158481   -1.75329989831755   -0.19753223410186
H          -1.93357525763740   -0.53151280900510    0.14818100332887
H          -0.98194193247117   -1.32422988629998   -1.50651032043778
N          -2.21663055584787    0.42086728950077    0.51365137367087
H          -1.74705536506247    0.58993619324822    1.45917721276791
H          -3.22295537170889    0.51529397135250    0.58648388735083
H          -1.78615294972626    1.12535016600046   -0.15538106940808
