    26
        -50.47168609  Gyration_radius:  2.49114157787 Dipole_moment: 3.015
 S          -0.58687620557723    0.88584115980211    2.04199637187593
O          -1.90083990091866    0.28721955271854    1.83210055572465
O           0.39222685026719   -0.03009284634599    2.56967109585327
O          -0.13327426127767    1.56254929032859    0.82939074734061
O          -0.79598156167606    2.01087932460780    3.13492601800858
H          -1.55997116911704    2.46224776089819    2.79296880233640
H           1.16998871387876   -1.10134578016927    1.67551840341007
O           1.67717134010157   -1.70710375969979    1.07670737382258
H           2.07987108264371   -2.36412331089127    1.64607125525029
O           1.16291247158464    0.07972253967798   -2.45108438897216
H           1.79081865355394    0.20034454822837   -3.16353515433809
O          -1.06350908060756    1.50763530077151   -1.69513722949344
H          -0.72315834552523    1.75607082770713   -0.81359564000925
H          -0.29763729234812    1.11837086033975   -2.15518798506080
O           2.20738127048235    0.73837063404954   -0.16074903856324
H           2.31724795258568   -0.11214877308324    0.28910717648049
H           1.62771074081767    0.37049599322362   -1.61232539392340
H           1.43237703653853    1.15295735996203    0.27097149863445
O           0.11109316910261   -2.08682492337080   -1.11662048185784
H           0.68322811004590   -2.07122113857187   -0.32552066387590
H          -1.25475912909041   -1.34877971807565   -0.76032344753693
H           0.51524193642834   -1.45225587149055   -1.73595030394575
N          -2.04707597104752   -0.66063002353733   -0.59086042889616
H          -1.81779025441567    0.21199351929626   -1.15752567948201
H          -2.04210904610756   -0.35295117931615    0.42462682413149
H          -2.94428712032637   -1.05722135701066   -0.84564027695050
