    26
        -50.46151601  Gyration_radius:  2.63556996165 Dipole_moment: 5.360
 S           0.03254218149490    0.18341773091684    2.63092847914051
O          -1.37988673939387   -0.19503873675493    2.65173702097206
O           0.94949016603267   -0.89535192870805    2.83622147375381
O           0.31190937217600    0.96040641814503    1.41155445868889
O           0.21867712727540    1.20305540221093    3.83429215797261
H          -0.46700265533931    1.84658816869045    3.68379988139050
H           1.19836858513082   -0.12589992264482    0.60173872399336
O           1.64238867707531   -0.94241274341966    0.26756848283575
H           1.82543163158283   -1.40708333453987    1.09497094234262
O           0.16746328768205    0.53009303549716   -2.72874932145493
H           0.14406659506694    0.94302156077395   -3.59267883195162
O          -1.17489238271290    1.79833232012144   -0.64747878735639
H          -0.55861384145077    1.70715140929828    0.10642760805271
H          -0.68296836600012    1.46997892320108   -1.42127335368649
O           2.68776216159362    0.01813143257180   -2.02121096936628
H           3.12921408429178   -0.71721307745615   -2.44974413195918
H           1.12049983903701    0.43040253688422   -2.49082848607972
H           2.47750418526072   -0.28264639036551   -1.11465337621278
O          -0.46682620709355   -1.73741926410046   -1.22014217804859
H          -0.36043032484211   -1.07671269340655   -1.92237800018048
H           0.33098489172892   -1.62834690969452   -0.66032565724861
H          -1.64734738166825   -1.10936517966992   -0.30587850052342
N          -2.26149294167735   -0.43103585293936    0.22661478617331
H          -2.04257470688687    0.52927248889658   -0.17223496478361
H          -1.95084979634737   -0.40097523529154    1.24911028567801
H          -3.24341742200521   -0.67035015818425    0.15261225788487
