    26
        -50.47168384  Gyration_radius:  2.49128218299 Dipole_moment: 3.028
 S           0.20708689725548    0.73920864098712    2.17007453959790
O          -1.14041632910188    0.22421727586698    2.38994502918970
O           1.23714851954740   -0.26305570829608    2.27221300103876
O           0.27018068231597    1.48925754286757    0.91826605704361
O           0.46296144190862    1.78004981911700    3.33448819437728
H          -0.35027381677673    2.27295646683366    3.32276776706546
H           1.58756685075721   -1.28855958097397    1.09835276971602
O           1.81669929487803   -1.86499433969716    0.32505231659670
H           2.34056687431100   -2.58475043980057    0.67944795848652
O           0.26376975256353    0.22804584742785   -2.69317072102914
H           0.61877413039757    0.37698066010282   -3.56963588909236
O          -1.46257202230571    1.69238767946195   -1.12975328342819
H          -0.82593946508117    1.84989313308032   -0.40544864805695
H          -0.92928387457758    1.30691664907862   -1.84858190793992
O           2.06984291035156    0.64575142979486   -0.86724724043084
H           1.00598059271490    0.42657793349199   -2.04984031759992
H           1.51958373315807    1.05833955063191   -0.17019052485055
H           2.26443946800100   -0.24336602686659   -0.53645840142611
O          -0.42560121371740   -1.98865410106200   -1.21282036053197
H           0.38109866597493   -2.06541645804559   -0.66821772890264
H          -1.53155379785545   -1.21902035810872   -0.36366985986520
H          -0.21130858734530   -1.32490973393976   -1.89337452756528
N          -2.16732065475554   -0.51076540170658    0.10995448830557
H          -1.79604716878838   -0.28910472387363    1.07880809435651
H          -3.12408599935873   -0.84213754700594    0.15505147167047
H          -2.08129690467402    0.39415181059632   -0.44601228670094
