    26
        -50.46437143  Gyration_radius:  2.44747088836 Dipole_moment: 8.378
 S          -0.21500114511617   -0.05959307924920   -1.15201896528245
O           0.00155403301089   -0.64403966257834   -2.47561800380277
O           1.10100157663213   -0.42278358083232   -0.38733248658558
O          -0.34875546679723    1.38109868454054   -1.16777919169527
O          -1.30427972665423   -0.71854400487076   -0.44028472384850
O          -0.23834030477861   -2.85929875951714    0.53189949551467
H           0.20577101174644   -2.53680449020836    1.32036777765256
H          -0.79968571166841   -2.10237506380114    0.22003604164803
O           1.09819707146543    2.91075125895807    0.45653808819415
H           0.60297388567640    2.39386223030403   -0.21582347267185
H           1.88801314441957    3.23267757160498    0.02114764987934
O          -1.89125207305589    2.88163357425790    0.56441990273432
H          -1.14954735186809    3.42489767222565    0.84767676717872
H          -1.56693010297299    2.39384142358586   -0.20997336269723
O          -1.71417064909817    0.52953578629414    1.90613021617371
H          -1.96880528172667    1.43093070254255    1.62577553306594
H          -1.77305461473527    0.00045996639603    1.09045626905061
O           0.89113348995867    0.60694308300482    1.89188023844215
H           1.06989094016417    1.53569153264149    1.65608445330772
H          -0.09365453719501    0.56553091448223    2.06113870248457
H           1.05253260667843   -0.02168570983399    0.56731385113534
N           1.05043893529805   -2.81963947432012   -1.75397471664048
H           2.04748987161654   -2.65702740936762   -1.64892433567961
H           0.86838923176872   -3.61180168153002   -2.36248969129517
H           0.59944733220090   -2.95052520940705   -0.79224257182015
H           0.58664382501824   -1.88373629529618   -2.15440347442996
