    26
        -50.47168700  Gyration_radius:  2.49107037 Dipole_moment: 2.998
 S           1.16927526254769   -0.41338153792356    1.94016405174652
O          -0.11128253520686   -0.31884306789705    2.63283710041579
O           1.41939881600893   -1.70577431704463    1.35465306227204
O           1.31471968499321    0.68069187615894    0.98292512908970
O           2.27785879054886   -0.19110502492165    3.04713760903570
H           1.96567078844603    0.60313279635588    3.46677611870931
H           0.78042804345872   -2.18664000400628   -0.02813581643729
O           0.41639953999870   -2.42230788570923   -0.91960812912987
H           0.50208230822344   -3.37348252032468   -0.99629839929880
O          -0.38926856039685    1.18890496546011   -2.40766824576019
H          -0.26353878354148    1.51581329601174   -3.29856634101971
O          -0.46464395732760    2.46073963946347    0.03029983118860
H           0.31293584433140    2.00088983461634    0.40255011773816
H          -0.46643906080039    2.21954628249190   -0.91392477639455
O           1.73635242944852   -0.04513042817856   -1.55368722950163
H           1.73596382757295    0.23512225337016   -0.61537350760561
H           1.46497082865631   -0.97451413628582   -1.53603278233863
H           0.47099983918749    0.74774141437073   -2.14424403755934
O          -1.80036576213516   -0.88160435287635   -1.26586781946327
H          -1.43524469722692   -0.16595388825667   -1.81732606099826
H          -1.07478064191250   -1.52833726005386   -1.17364954114015
H          -1.98579974348188   -0.13668140663522    0.12990420452686
N          -1.94259250732949    0.50794458364700    0.97405182480814
H          -1.26662605121270    0.11340557608206    1.69062617446154
H          -2.86013513703091    0.64988321358815    1.38047926003877
H          -1.50633856585823    1.41994007817966    0.63797819268601
