    26
        -50.47168654  Gyration_radius:  2.49098403264 Dipole_moment: 2.992
 S          -0.86764063701145   -0.56722198018186    2.05637592193091
O          -2.18126519331451   -0.50432867560085    1.42490538202395
O          -0.18339165506375   -1.81821377350490    1.85030540049365
O          -0.06152864066675    0.59038520958548    1.67555851357992
O          -1.12630924259174   -0.43946694370286    3.61219440782643
H          -1.66852454927810    0.34101259534107    3.64786992237057
H           0.58471414716623   -2.19109072033669    0.49983017042554
O           1.10461789476660   -2.35768478712813   -0.32752468555409
H           1.26016668791895   -3.30267706289517   -0.35522984626202
O           1.66392094151230    1.36083277387791   -1.65422255316796
H           2.44311616421744    1.74808673135283   -2.05333494105747
O          -0.41695862490275    2.45881242582075   -0.22836015916321
H           0.35841300419417    2.28487718185129   -0.79246144895140
H          -0.24131051661407    1.96221129960356    0.59455603200834
O           2.27471887870129    0.03873055671181    0.50239667160653
H           2.14766464265095   -0.88556779033468    0.24320053885515
H           1.97472114694589    0.88992850208581   -0.82620599517821
H           1.50058307987411    0.25183166625906    1.06295385703354
O           0.01475776325257   -0.76378364364782   -2.24495450701801
H           0.64009062288692   -0.01661265921480   -2.23208339962897
H           0.39558742567665   -1.42593052332970   -1.63662873852886
H          -1.26027974092632   -0.11647215669278   -1.54327720827510
N          -1.95002440382504    0.46591584761344   -0.98191728127895
H          -2.11544632720051    0.01127311149765   -0.03734812584386
H          -2.82274848239470    0.59226261385399   -1.48153778260627
H          -1.46764438596466    1.39289021112123   -0.77506013566261
