    26
        -50.45060086  Gyration_radius:  2.56285536662 Dipole_moment: 6.181
 S           2.11538739483506    0.22045053383314    0.68799581215653
O           1.97700704750932    1.14161794386870   -0.41895143255638
O           3.36350764415283    0.19616835057095    1.35268312287159
O           0.94920300676641    0.54579408310322    1.68684132947550
O           1.74239612356563   -1.19509570784316    0.23179422156506
H           0.83615149594369   -1.18985010326502   -0.25925004064813
H           0.82136166096052    1.55006481741323    1.60664421371181
O          -0.53827592848234   -1.28236878172585   -0.85648903549380
H          -0.66854255315320   -2.25813619278487   -0.76413831787554
O          -1.59433785265339    2.40099068278520   -0.31954868401685
H          -2.22586829117695    2.99042762783882   -0.73283593705565
O           0.66299640665943    2.98239506861519    1.05775189810107
H          -0.21797550321562    2.94585176824552    0.62942196613831
H           1.30679116473846    2.82857947050173    0.35100364561913
O          -0.12468938305677    1.15803160684198   -2.08232512944391
H           0.74181024629485    1.21543726637611   -1.63497876308465
H          -0.37307432359179    0.22546178358702   -2.01316575439801
H          -1.08366389292816    1.96366069580961   -1.06073210723083
O          -1.74621147374242    0.02816183596948    1.08273884546662
H          -0.95593740492603    0.11529936535205    1.63214765445119
H          -1.88774787577398    0.90641039423668    0.68841987735530
H          -1.10727279218455   -0.86396421199381   -0.15803101983842
N          -0.55472063171469   -3.91106334556065   -0.27341684615991
H          -1.21436644424047   -4.17302814323166    0.44847860164698
H           0.37584356118165   -3.93669450740733    0.12707062766410
H          -0.59977142174631   -4.60460231112065   -1.00912877841322
