    26
        -50.45060038  Gyration_radius:  2.56310921255 Dipole_moment: 6.204
 S           1.52574477353167   -1.63443026484819   -0.09886520751565
O           2.18247155178153   -0.46927650818566   -0.65048577360031
O           2.29497239603937   -2.81649646269250    0.00729263798213
O           0.95471543428859   -1.20394545580976    1.29843831212811
O           0.23887484103291   -1.92114654926672   -0.88117481665099
H          -0.33065368494217   -1.06636541771141   -0.96876481661307
H           1.62863652954305   -0.53008191445244    1.64940933201002
O          -1.27554380493229    0.09897519401383   -1.01346791148569
H          -2.10032716166087   -0.39330025552551   -1.24832410556300
O           0.77202682511232    2.52526068796216    1.19363486181685
H           0.81712118426928    3.47724841250722    1.28753483356310
O           2.62673488792557    0.63871964382189    1.77148055501079
H           2.96903654171539    0.49480133097844    0.87713315455224
H           2.04107766818745    1.42233509319298    1.71046884315399
O           0.89190432184466    1.78628870338808   -1.30700889586976
H           0.81612312503373    2.33208407156740    0.21283130536974
H           1.48352473145287    1.01428254453536   -1.21643187502927
H           0.02418801878407    1.40648619746908   -1.50435806500636
O          -1.17695958230447    0.60745745569108    1.56887110160181
H          -1.36728691350897    0.34168585499957   -0.05464818651808
H          -0.61795103775770   -0.15098584515985    1.78401760972919
H          -0.59087963034702    1.38325630238136    1.60876122480587
N          -3.29835704405125   -1.61597130763807   -1.47856764427313
H          -3.95213498503188   -1.69739074242808   -0.70991532576811
H          -2.72975798576547   -2.45452432870133   -1.49746567813375
H          -3.82730099024450   -1.57496643008976   -2.34039546969513
