    26
        -50.45169189  Gyration_radius:  2.58437535117 Dipole_moment: 3.475
 S          -0.46289879412854    0.98748822938010    0.59703552777058
O          -0.86435455040464   -0.32937303340217    0.05601417475870
O          -0.79038304177354    1.09171813477562    1.99338511728712
O           0.91985411144659    1.28803751939071    0.26066611564395
O          -1.30991952760351    2.03741708741296   -0.21904033188038
O           1.96350154748976   -2.25278385277229   -1.66179519512676
H           1.78231626269040   -3.14273165588947   -1.97063433159854
H           2.00587523552539   -2.31350108775774   -0.67052810506460
O           2.08138636610385   -2.56731921557821    0.94746523964930
H           2.96749448340000   -2.74983233991799    1.26638094639609
H           1.77890184865511   -1.78266449901888    1.46088048175856
O           1.56874415393416   -0.33019771932886    2.30463178672451
H           0.69904465796246   -0.10208994740700    2.65522408910161
H           1.69780980389857    0.31980868624173    1.59632152721437
O           0.74129266551344    1.73670062570215   -2.29444335453609
H           0.98318326132130    1.68700243638962   -1.33832027186470
H          -0.02992990166293    2.30971165357143   -2.31940229350537
O           0.00690390452885   -0.70525353552335   -2.19488429308853
H           0.34820374199716    0.23614679522281   -2.40163731804493
H           0.82473320285830   -1.30501595960973   -2.03262471543042
H          -0.43770235619939   -0.58316740274963   -1.18813275975313
N          -3.45375510371123    1.28373861288771    1.05875201839122
H          -4.23621172837870    1.77949354190517    1.46637449766724
H          -3.78115817517241    0.38770533600930    0.72148862791719
H          -2.24143395203241    1.91157264050842    0.12285958615130
H          -2.76149812625305    1.10738897956178    1.78396322345691
