    26
        -50.45060074  Gyration_radius:  2.5631675028 Dipole_moment: 6.192
 S           0.99291453976664    0.52318486349532    1.93432560734589
O           1.82875367839588    1.10670934157564    0.90767946920881
O           1.37049764594968    0.75127254224821    3.27808677612675
O          -0.46682509533362    1.03214808592196    1.66308307476905
O           0.84398679472159   -0.98231694634096    1.68532617128043
H           0.57299376705241   -1.16279084565872    0.70723565373864
H          -0.34225371718393    1.96896743740936    1.29139481959864
O           0.04239652562981   -1.49344536603271   -0.65748880476078
H          -0.26294481758112   -2.41556794142113   -0.47289154838764
O          -0.49364848466241    2.12839731235211   -1.90576527124290
H          -0.54012157827931    2.54762602357247   -2.76556354534697
O           0.16092980919980    3.19098709415335    0.49687036454305
H           1.08141002423064    2.89351982020349    0.54006876649342
H          -0.14293048171934    2.98840051472942   -0.41285126187608
O           1.57663980338578    0.55215628706475   -1.70225943578873
H           1.21319294616529   -0.34142382491933   -1.62748387476488
H           0.31650748543257    1.54103973810097   -1.91733617110363
H           1.86009585892966    0.77883826147144   -0.79530869502013
O          -1.96335014185514    0.21129761979544   -0.56957970700436
H          -1.79927852946595    0.48919181804707    0.34137568588288
H          -1.64403116579170    0.94226723114054   -1.12682079545857
H          -0.78008246800501   -0.93913124773663   -0.71101280160732
N          -0.78844526869452   -3.87031546710943    0.29653949100168
H          -0.40569934506471   -4.73501475145832   -0.06423739563233
H          -1.79473197669870   -3.96764762118958    0.34910748166924
H          -0.43597578852667   -3.73834994938405    1.23750594633107
