    26
        -50.45060072  Gyration_radius:  2.56343828528 Dipole_moment: 6.202
 S           1.46690671776347   -1.56322295957466    0.64052489692793
O           2.13760234631996   -0.81692371924294   -0.40172969031315
O           2.20199751212353   -2.59654757794069    1.26675923910866
O           0.96553848677703   -0.50982587220327    1.69049820522261
O           0.14152412461862   -2.11911318710683    0.10668714006665
H          -0.40294109395152   -1.37605199356978   -0.35596741612506
H           1.67456118759008    0.21712817300938    1.67662472883154
O           0.89956352774761    2.75305348294025   -0.12283205913601
H           0.97998681125898    3.63774860175874   -0.48055322071236
O          -1.31069544120170   -0.32056950624719   -0.91744409225863
H          -2.15915021441613   -0.82723600313870   -0.88340277953363
O           2.71449000571375    1.26156370556252    1.22361140758362
H           3.01650990849079    0.70549827368358    0.49064464206873
H           2.15202924238401    1.95488540893742    0.81887152654817
O           0.89587033371157    0.93983005853720   -2.00021279905226
H           0.00932666951251    0.55267179640081   -1.98186337644580
H           0.89816184572611    2.12759404091736   -0.90399455240070
H           1.46550272101673    0.26978525343715   -1.57493005347987
O          -1.09546823758403    1.31773514140568    1.13345612998180
H          -0.48354919361786    1.99616942025945    0.79851135883749
H          -1.35828789493579    0.34110590765412   -0.17811258674535
H          -0.55319396913084    0.71923408009203    1.66422454473482
N          -3.40284386449748   -1.96481739813747   -0.50576276270086
H          -2.86212637970486   -2.73968534857559   -0.13960312745486
H          -3.95379122232461   -2.30531266763069   -1.28340796956758
H          -4.03752392891312   -1.65469712209431    0.21940266685276
