    26
        -50.45060073  Gyration_radius:  2.56334542565 Dipole_moment: 6.203
 S          -0.58691348973227   -2.13486044977443    0.32140011742786
O           0.85496111500465   -2.14993280387551    0.20384474200380
O          -1.22348675589901   -3.36978465344388    0.58595009670500
O          -0.93300664773531   -1.07298988062614    1.42417903578243
O          -1.20055918019166   -1.49095649373834   -0.92734495173407
H          -0.74120743058005   -0.59135815026802   -1.13306222420526
H          -0.16409677344419   -1.13572742225576    2.08472783374705
O          -0.21823676269236    0.78796607567641   -1.41113841273937
H          -0.94399943274774    1.09982808480973   -2.00600363692345
O           2.07981090392036    1.11657349199539    1.68271032914249
H           2.85750553288523    1.63293450961536    1.89644037022123
O           1.23804994481677   -1.23936473271537    2.71772973616420
H           1.55738644199727   -1.82700062193839    2.01747954087150
H           1.62097565744751   -0.35830936564001    2.52255629288996
O           2.29647875948070   -0.05387630449154   -0.64007215937465
H           1.91620637061075   -0.92507202098400   -0.41501198113981
H           1.62933335161594    0.36491055579745   -1.20196937590187
H           2.24269034378241    0.71377771910418    0.78124365821686
O          -0.54523119937303    1.68449629142960    1.04381638683871
H           0.36095064879813    1.66599966936543    1.39777555130804
H          -0.35750396852945    1.25231801571594   -0.54421880360230
H          -0.96824771748631    0.88020310177161    1.37267613238402
N          -2.44806351492578    1.29717114975181   -2.83136461784706
H          -3.06332404277803    1.98060530268481   -2.40805994885959
H          -2.86528604516700    0.38162608141453   -2.71099415992232
H          -2.39518610907708    1.49082283061346   -3.82328959147558
