    26
        -50.45018982  Gyration_radius:  2.49756165963 Dipole_moment: 5.277
 S          -0.99338596111360    0.18849556602463    2.19721218532223
O           0.41397407559048   -0.08963105696544    2.37689578207598
O          -1.69744404331360    0.71550970450010    3.30427608428625
O          -1.11402743928171    1.13182715609322    0.95712096868501
O          -1.71368787510316   -1.07877326936720    1.69588740522062
H          -1.20063280272777   -1.51294478012621    0.94951094765972
H          -0.21006120331214    1.59258255558841    0.86526511637626
O          -0.48802228611683   -2.24090068124444   -0.25215746966033
H          -1.05685490462234   -2.94205835053772   -0.57414074415246
O           2.25428961412668    0.31835032291243   -0.96540385362307
H           3.14560906317722    0.34843408349176   -1.31495541938027
O           1.25900052704888    2.00228668528256    0.88571283888930
H           1.66357935913923    1.52501336944147    0.12824741818580
H           1.44385616704973    1.46037888030216    1.66606026203745
O           1.98526480592034   -1.58598734252723    0.79952128967357
H           2.22933757204628   -0.44325294783609   -0.31646680011875
H           1.53921336445701   -1.10177932574791    1.52002895697883
H           1.29296428217152   -2.14816113341932    0.42468443990840
O          -0.06839709512615   -0.60243913390937   -2.17813193661467
H          -0.34785259455503   -1.60677807952006   -1.03439802603990
H          -0.75698669430864    0.10675890306853   -2.14815326186160
H           0.76574725725808   -0.17916629865848   -1.91671940462768
N          -1.91804333098505    1.34342346607669   -1.86573655515481
H          -1.66757485075279    2.26084084927441   -2.21254894226647
H          -1.88545482071402    1.37867438244423   -0.85069615661080
H          -2.87441018591652    1.15929647535061   -2.14091512517984
