    26
        -50.44862188  Gyration_radius:  2.41643433737 Dipole_moment: 4.694
 S           0.65876056257704    1.24456928970945    1.52589181064787
O           1.94293109781726    1.64307582966188    0.78942307732311
O           0.23743121492717    2.28861026859150    2.38640058481666
O          -0.37138640670583    1.02417709345455    0.38101261181249
O           0.81516313658800   -0.05934053512989    2.12941919183904
H           1.11436983494182   -1.35689656670920    1.18606358383278
H          -0.40526165421587    1.76739430474957   -0.28277032796460
O           1.33692009190952   -2.06627784339394    0.53508331016307
H           1.85069883580857   -2.71878381763839    1.01319478656941
O          -0.21397060335496    0.02102406787469   -2.49080369893291
H          -0.25693538670048   -0.46373464507279   -3.31638104818130
O          -0.59126293605115    2.56227626041099   -1.66812784402755
H          -0.43574909039418    1.73939399586494   -2.17350270289482
H          -1.51382558993540    2.79464865727941   -1.79282679710034
O           2.13291856154538   -0.05232670262736   -1.08336766490077
H           1.35310452771799    0.07423032279200   -1.66047949151286
H           2.09856848149227    0.98565199149228    0.01854359599029
H           1.97502346357241   -0.89311932058698   -0.61207291695099
O          -1.13469682476842   -1.66783583822885   -0.73692537953232
H          -1.58241684027613   -1.30235321788626    0.05839267952666
H          -0.64524619547847   -0.56835406313173   -1.80111071229207
H          -0.30612240126533   -2.02862804482945   -0.38993449175257
N          -2.01074911349444   -0.85626260751417    1.74357293950389
H          -2.56544658163123   -0.01004937326650    1.76348012313647
H          -1.07821408677498   -0.60222328381658    2.05751115122878
H          -2.40460607786605   -1.49886624203529    2.42031361965505
