    26
        -50.44862196  Gyration_radius:  2.41647865351 Dipole_moment: 4.691
 S           0.90961402499731   -0.20043656291087    1.85579882582456
O           2.32971667674937   -0.17067930557710    1.27926552798310
O           0.90003717029064    0.31647004100404    3.17511819156506
O           0.10141944307056    0.72072137003128    0.89706047107180
O           0.32686900678140   -1.51090722801709    1.67701651585287
H           0.12652674680271   -2.10782191786528    0.17175760016230
H           0.53504263374056    1.60107323721766    0.72106746006758
O           0.08997978292951   -2.39507029950025   -0.77310155295112
H           0.14694890428512   -3.35160809759676   -0.76595185095763
O           0.23136547247566    1.37413015739791   -2.07512584637508
H           0.09884503180596    1.46572727457967   -3.01982031629704
O           0.98149508774914    2.95553586935529   -0.02241747210866
H           0.31665081590117    3.63554318866768    0.10492498853155
H           0.80615989474209    2.54740343236587   -0.89391002652935
O           1.99705508168396   -0.52849853575802   -1.20628629383921
H           1.47638480148843    0.23166680130463   -1.53524292256132
H           2.27861151528360   -0.32642439511565    0.26730350978975
H           1.38526715416026   -1.28969562200720   -1.22064799989216
O          -1.65185172164205   -0.26868239600139   -1.34703226791671
H          -1.16229097158817   -1.10380198748817   -1.33888233187924
H          -1.99714249121856   -0.19027097244094   -0.42981609596992
H          -0.53369950630315    0.81516558455096   -1.74148755549745
N          -2.43252429901269   -0.51118595975710    1.28138196146801
H          -3.18877494053372   -1.11940490596198    1.57148290502160
H          -2.51491492269642    0.35263761598082    1.80218974370881
H          -1.55679038194601   -0.94158638645964    1.56535483168766
