    26
        -50.44862202  Gyration_radius:  2.41650778673 Dipole_moment: 4.692
 S           1.34888514960558    0.75591474161216    1.38599639951796
O           2.49694144421370    0.84669578336193    0.37420422879727
O           1.49524270339780    1.74448923783443    2.39058098369906
O           0.07825412604474    1.02456827103235    0.52923487920277
O           1.19604230954782   -0.60603689648311    1.84490028512754
H           0.83936449341685   -1.78446161314834    0.77420357373952
H           0.14752348204348    1.82892627479958   -0.05574815859779
O           0.66841418359118   -2.42764271335492    0.04365146180566
H           1.03076319776512   -3.26622099734620    0.33311954930366
O          -0.73903523791318    0.44004810137518   -2.34701683296943
H          -1.12000696893647    0.11468369952417   -3.16393469540200
O          -0.06333084590073    2.83086818136892   -1.29588855566252
H          -0.30432229317747    2.08032767128146   -1.87503747259983
H          -0.86006766474752    3.35000095153204   -1.16784228879109
O           1.70277375684949   -0.53958714218599   -1.59171301995293
H           0.90050623852773   -0.10245447412495   -1.94165753727883
H           2.25380942560954    0.29086427045537   -0.45210485395755
H           1.38629125742781   -1.35183883713257   -1.15133849013978
O          -1.75180136737484   -1.12460237536279   -0.53008113176362
H          -1.03192187493339   -1.76389406364531   -0.42882546000556
H          -1.86921645293499   -0.75838049775261    0.37472326000015
H          -1.17654056623070   -0.08368878309798   -1.60985800855949
N          -1.74647608039388   -0.44772148615888    2.13789563128810
H          -1.97388547623618    0.51488072519635    2.35204443240089
H          -0.73740919764378   -0.53538291910841    2.22087810861691
H          -2.17079775173501   -1.03035509014469    2.84961371241963
