    26
        -50.44862214  Gyration_radius:  2.41682768878 Dipole_moment: 4.696
 S           0.41554108114767    1.25135735632150    1.60555324470331
O           1.90664811481651    1.35764651672124    1.26650671458441
O          -0.02638179554229    2.42472930392873    2.26561287127857
O          -0.27082430501481    1.10832114674519    0.21655743323075
O           0.14494584265108   -0.00077728018118    2.27481256103466
H           0.45418647932461   -1.41059436162040    1.51386964380244
H           0.03125008349695    1.78066904351381   -0.45482800726116
O           0.71734717052694   -2.20383268953935    0.98647830669043
H           0.94384382226546   -2.88562722231323    1.62065643402481
O           0.51174792047475   -0.16966332307980   -2.44017378619345
H           0.61545942959758   -0.71203968089315   -3.22340822044947
O           0.40799242335511    2.46294904607260   -1.86142341989279
H           0.54050797680377    1.58222742137372   -2.26588701158188
H          -0.37687449764195    2.83911471052566   -2.26538580317488
O           2.30295955396951   -0.50912807905390   -0.39902384943758
H           1.86291307036155   -1.26494245990847    0.03590387557815
H           1.75812290043342   -0.30673794531421   -1.18606009612556
H           2.14951605911994    0.61563525274507    0.60208672175980
O          -1.16812984269357   -1.51551997769899   -0.97722943113033
H          -1.74864679576814   -1.01014829282253   -0.36535148128901
H          -0.20048490434976   -0.61382997556168   -1.88824782829348
H          -0.55573451654977   -1.97687651103664   -0.38630993701660
N          -2.54931245576972   -0.34703492937668    1.09604602006238
H          -3.23349312615690   -0.84940772890135    1.64887305351067
H          -2.91771259443660    0.57828395468014    0.91642793325480
H          -1.71538711441755   -0.22477329531890    1.66394402832202
