    26
        -50.44862203  Gyration_radius:  2.41653901649 Dipole_moment: 4.691
 S           1.35169359723246    1.26159079034225    0.94534010482401
O           2.49453348659425    0.93065878137367   -0.02129573333058
O           1.49898316036002    2.57575686680585    1.45435701969772
O           0.07595558857643    1.15265781660328    0.06139914854271
O           1.20646404942664    0.20808536394329    1.92409511102654
H           0.85018166577463   -1.30691313322005    1.43403872282992
H           0.14014539491087    1.64488640002390   -0.80326051024992
O           0.67877985993480   -2.19383578257652    1.03337471568572
H           1.04579782959724   -2.83863243946404    1.63979973782503
O          -0.75186729368036   -0.56498474857581   -2.31603650682542
H          -1.13557483050607   -1.19795311330445   -2.92473501682838
O          -0.07927403934081    2.04720760388038   -2.34476232246855
H          -0.87704637459588    2.57219787572987   -2.43736631054845
H          -0.32038015714621    1.12457513722292   -2.56256165512150
O           1.69748244242110   -1.14242504250019   -1.23949068964529
H           0.89171797706218   -0.88959750741020   -1.73349759530607
H           2.25009815763135    0.08406972811719   -0.54503295565824
H           1.38667991376141   -1.70273717446729   -0.50238787543889
O          -1.74943967202305   -1.24683284005751   -0.01062758692780
H          -1.18368318294974   -0.74026185473582   -1.42611899627433
H          -1.02617295961322   -1.78634240132348    0.34011703978015
H          -1.86464493545189   -0.54146955970592    0.66449672673224
N          -1.73530898258105    0.46690711195408    2.14333928630163
H          -2.15399243850002    0.22854831027751    3.03436085115527
H          -1.96557379823965    1.43185217846354    1.94332827783411
H          -0.72555444862504    0.42299164260770    2.24912702232905
