    26
        -50.44862204  Gyration_radius:  2.41656272341 Dipole_moment: 4.691
 S           1.52072872600699   -1.39755708132073   -0.21597813985720
O           1.28355247632302   -2.02263011093458    1.16352267251860
O           2.04444128134003   -2.36161152286122   -1.11276804579350
O           0.10254484984540   -0.94082416232977   -0.66423511571393
O           2.27255590363146   -0.17029292646678   -0.08403485463340
H           1.65495909085686    1.06800125789346    0.78091786037062
H          -0.59903785745673   -1.64190004548842   -0.56264424064821
O          -2.37539173275086    0.09870472411325    0.77175122508881
H          -3.10058077296996    0.60688814943327    1.13812792826270
O           1.21504766598113    1.73728940863532    1.35976766421089
H           1.91785157437164    2.25717881472064    1.75232101514864
O          -2.02735087892749   -2.34154926589661   -0.32450960404386
H          -2.51502421232837   -2.38386190777402   -1.14976849852882
H          -2.34734650666605   -1.55037629133794    0.15340422296124
O          -0.92809838805398    1.88507845135277   -0.44875258692971
H          -1.84010416397387    0.74179314334008    0.21589288735474
H          -0.25850977653906    2.06026298793661    0.22807248274839
H          -0.40364546994008    1.59386177778383   -1.22772735253184
O          -0.19009168533913   -0.34468458239583    2.35931471867478
H           0.70142596455145   -1.38689491893187    1.71833273469504
H           0.27365326980068    0.49589536776361    2.17952209414688
H          -1.02789538262485   -0.29371950302097    1.85664280001839
N           0.93769997195131    1.19161456758576   -2.34974456610761
H           1.48038333609243    1.87960252669877   -2.85786595893665
H           0.65741768914526    0.47434937296612   -3.00639628762012
H           1.55081499766610    0.74538175852325   -1.67316506483417
