    26
        -50.44809713  Gyration_radius:  2.47111611727 Dipole_moment: 6.460
 S          -0.79077172589871   -0.94026444270959    1.07065817098575
O           0.00705153281507   -1.52572309244622   -0.11655596500688
O          -0.99264480305924   -1.94677677984452    2.04256194927486
O           0.19605062145792    0.14876994949058    1.61575530063186
O          -1.92600429921331   -0.19755425781175    0.59363538723287
H          -1.71973663997450    1.15505873817608   -0.27730443458390
H           1.12848484167028   -0.23032043353241    1.56210720499336
O           2.51973995575729    1.31977769367509   -0.73116727573463
H           3.26950834503781    1.85516806049269   -0.99430636828483
O          -1.47687222501576    1.89739773689171   -0.88440830209327
H          -2.29956826959115    2.21442157340621   -1.26107262804705
O           2.50916390083813   -0.76036313090635    1.01894094212477
H           2.26165014288888   -1.55148231722029    0.53081326357759
H           2.69523426773190   -0.06343745539616    0.35609395226031
O           0.71387932114610    2.68684918273449    0.58650104789641
H          -0.07776512436839    2.68031508894850    0.02353214016829
H           0.52074783315317    2.05386075183152    1.29088005458722
H           1.90937470538423    1.91735880953845   -0.21489348763239
O           0.34297250913728    0.19626801280170   -1.92528301699955
H           0.09890957559562   -0.85846527310810   -0.90163135525759
H          -0.32946900386316    0.88286474909524   -1.74258297099166
H           1.20453790967691    0.58553597155007   -1.68498216138598
N          -2.63612547546326   -3.02224269145069   -0.14740006227360
H          -2.55326854703247   -3.38799197909823    0.79385079130442
H          -2.86498863433080   -2.04110221565258   -0.04921961445777
H          -1.71009072446895   -3.06792222950314   -0.55452255224881
