    26
        -50.44862204  Gyration_radius:  2.41657685149 Dipole_moment: 4.694
 S          -0.49235599241882   -1.76911394399586    0.97007358118491
O          -0.52526583789653   -1.11928213689447    2.35806930436432
O          -1.38061943308756   -2.87198146313024    0.91880852972016
O          -0.96776864639183   -0.63381794794196    0.01828515554302
O           0.87317451851695   -2.02737525963785    0.57318847983490
H           1.92114919292165   -0.78530033511705    0.42659289410280
H          -1.79959390805366   -0.17466908038979    0.32034282078427
O          -0.69420940511266    2.40103260526663   -0.01174607676409
H          -0.47638237260502    3.31952284460334   -0.17701580813581
O           2.48499901248239    0.02608760139556    0.40981233488454
H           3.37844581602805   -0.26305845170349    0.60077132447273
O          -2.90750330995408    0.96700220243808    0.55578859241290
H          -2.23437922879779    1.66347162797061    0.41943504948504
H          -3.50429738862189    1.00660167557527   -0.19448843975648
O           0.87524132735059    1.09630811531762   -1.62694124054038
H          -0.17050547131981    1.86746118435975   -0.68271216996029
H           1.59843591607272    0.87041906981970   -1.02436831329005
H           0.56587772292614    0.22425833529206   -1.95942489512802
O           0.61181802268774    1.11944990777621    2.02361822842503
H           1.41291558973839    0.86647765111702    1.52549745109528
H           0.06116233423070    1.62634704024154    1.39343761098514
H          -0.06360978574683   -0.20542054613274    2.30650033120793
N           0.40203271930218   -1.52809115967513   -2.30725271438185
H           0.98293676225906   -2.03491062791178   -2.96429041997862
H          -0.56194231881051   -1.76987014595723   -2.49824468850640
H           0.61024416429090   -1.87154878268486   -1.37373690206461
