    26
        -50.45722702  Gyration_radius:  2.5773508618 Dipole_moment: 6.714
 S           0.29833837223876   -0.59196402670425    0.97958789586763
O           0.77135209158900   -0.29472697081872    2.31316622691537
O          -0.12695771656708    0.77516887887022    0.32282469526735
O           1.42022970158585   -1.02312135490062    0.11312002802189
O          -0.82620965977004   -1.49106663714073    0.92114036296356
O           0.82303709009730   -1.15585134135900   -2.47721575980471
H           1.07796934490572   -2.01800555084837   -2.81126542945012
H           1.04580606079244   -1.15809971857125   -1.52359076773451
O          -3.63932081947612    0.27686721190504   -1.24717746837749
H          -2.95298518494353   -0.38810569098283   -1.50125609625005
H          -4.47882286612560   -0.18352103658237   -1.28886570212423
O           2.56178844292589    1.55191058075308    2.42172942221411
H           1.80968913307663    0.89669305596467    2.48118715524253
H           3.24741449329695    1.20341246768025    2.99477714439194
O          -1.77237010716506   -1.57060898792575   -1.60745554771264
H          -0.97841045093910   -1.31892968092022   -2.10873640415128
H          -1.47095857084403   -1.67360268867565   -0.68545715915199
O          -2.51771047902899    0.64716178903524    1.13968602965418
H          -1.08310378855258    0.90025249641367    0.63638343621186
H          -3.02980763084941    0.62929932276377    0.29375715585067
H          -2.32099090549709   -0.27697922932481    1.34925391632209
N           2.46201032948065    1.27920862743251   -0.17040435918480
H           2.12827491391268    0.23858060930326   -0.12506511328086
H           1.63798641105298    1.79724513093472   -0.47771673625838
H           2.66102161344267    1.52836160929654    0.84862317679991
H           3.25273019136037    1.42042114438679   -0.79103010224712
