    26
        -50.44809706  Gyration_radius:  2.47119151234 Dipole_moment: 6.454
 S          -1.34464035561221    0.32689283623589    0.86011851216652
O          -1.39150089493860   -0.36783849281820   -0.51970374913571
O          -2.55941967363528    0.09418906211944    1.54452870852796
O          -0.17113095307747   -0.43667481562264    1.56500640494770
O          -0.87116154190714    1.67801062037990    0.72491250273997
H           0.64431373979524    1.97511104097086    0.22928370827580
H          -0.24424481090868   -1.40938118164834    1.31125399132284
O           2.11745375524907   -1.93811558064224   -0.62225175292797
H           2.89086174055816   -2.47043178857511   -0.81335609258692
O           1.54255357051737    2.03759027159995   -0.18048692144633
H           1.68657285080073    2.96670948328914   -0.36810536601116
O          -0.21820308672745   -2.75984486908511    0.49992682135556
H          -0.91490774719540   -2.63558303252633   -0.15165527231984
H           0.63413797673489   -2.64482875951605    0.03089823932896
O           0.71784365587255    0.06473120105839   -1.82867976222611
H           1.27284022113595   -0.70066001233314   -1.58834854404745
H          -0.56595327301746   -0.14888681157439   -1.10330391886005
H           1.12231984454842    0.84405003920831   -1.39737860797260
O           2.57281915128330   -0.11124474870383    1.20028474152340
H           2.38128874946559   -1.29947905790389    0.09794330936412
H           2.46684785635438    0.74059920354831    0.74547530097345
H           1.76866076351439   -0.21111708145502    1.72702790583178
N          -3.53653604022173    1.77940137239483   -0.65971501472970
H          -3.22122639632693    0.95740416951098   -1.15983812629706
H          -4.06831830413724    1.44441979200977    0.13496071584650
H          -2.71127081813015    2.22497711980886   -0.27879773352275
