    26
        -50.44809710  Gyration_radius:  2.47109372609 Dipole_moment: 6.454
 S          -1.59052010629195    0.30419124434954   -0.18322932729231
O          -0.72988082118489    1.00630967976358    0.89145437858506
O          -2.77326867295330    1.04813778513987   -0.39744569624791
O          -0.66256142715098    0.38792019983314   -1.44380077072117
O          -1.69554613909403   -1.10192409241868    0.09926031398279
H          -0.38352400705136   -2.05434889120076    0.04997935737439
H          -0.21554469656816    1.29119612374597   -1.43364936409797
O           0.49184746346370   -2.51284868465678    0.09573727415783
H           0.31649731388693   -3.38949491795742    0.44204648947578
O           2.74902416797224    0.73742761221053   -0.72334853826927
H           3.66671555646444    0.84977603484150   -0.97494982105963
O           0.71289668225148    2.50771693238863   -1.05778121324622
H           1.55695284753838    2.02746445004023   -0.92924490272531
H           0.39882764416754    2.75960224715626   -0.18410668552678
O           1.36580842723123   -0.30467720999981    1.38023411135675
H           1.18190707161250   -1.20314512566618    1.03992537051385
H           2.00921828057824    0.09510586225997    0.76554760587486
H           0.10220063152975    0.45291839609904    1.15895717703381
O           1.56030835222914   -1.17600369687195   -2.06195378130843
H           2.37989906516155    0.01500556917171   -1.30470236316563
H           1.33615689422723   -1.85294028863561   -1.40217727882264
H           0.72272989917589   -0.73479093761272   -2.25661944828604
N          -3.24289878797938    0.13513792313057    2.35950162162375
H          -2.93478524809291   -0.66470628159667    1.82094371020353
H          -2.43540932971874    0.73319680499964    2.48392491339720
H          -3.88705105124125    0.64377325187048    1.76549687716890
