    26
        -50.46011207  Gyration_radius:  2.39809797926 Dipole_moment: 9.012
 S           0.47148763668674   -0.35492768116621    1.86750670836399
O          -0.13052508367154    0.77977853340324    2.57477103062202
O           1.12009141921905   -1.33849148901740    2.66664297254252
O          -0.77875601150013   -1.10807435887383    1.18854772722154
O           1.26935200069902    0.13832686178823    0.74367139516470
H           2.23346329741249   -1.23715358842681    0.43628095837520
H          -1.30571370655188   -0.45047572607594    0.69944752413099
O           2.48742562556634   -2.17282549291659    0.32500776613432
H           2.35855759007522   -2.54062171937739    1.20517499598917
O          -0.42196208775628   -0.18968872606164   -2.32259680160113
H          -0.53463221180547   -0.43240750369095   -3.24262770790133
O          -2.25773094199459    0.43436073456551   -0.50497674959443
H          -1.62584458639477    0.25403091880597   -1.24310166550611
H          -3.02751268248179   -0.11433829710430   -0.66471365669540
O           0.98706952675442    1.90223926813148   -1.15644086381840
H           1.40533342607921    1.29128722362899   -0.51566178701748
H           0.54249437053378    1.30139028576673   -1.77713695946994
H          -0.03988283626192    2.33105761505716   -0.05338631029935
O           0.21420310644617   -2.36513277214608   -1.05986040570410
H          -0.26342127493353   -2.21374278436328   -0.23044195568900
H          -0.08760981006281   -1.02016081490878   -1.86057004240497
H           1.15230795920659   -2.42840670443838   -0.77043313901177
N          -0.77336805823595    2.40354910141752    0.72722857734047
H          -0.89775612779175    3.36061226891205    1.03881039219403
H          -0.45117169622047    1.76062546048847    1.56356735706881
H          -1.64589885301676    2.00918937660566    0.36529065956065
