    26
        -50.44506442  Gyration_radius:  2.49485941759 Dipole_moment: 5.629
 S           0.63451289902782    1.65026728723061    1.59249961875502
O           1.71534462721467    1.58252980589477    0.65013890219867
O           0.65933637487833    2.64853100652763    2.59495399573731
O          -0.70304633812986    1.74846626838679    0.78190100333929
O           0.47457776978194    0.26345174973272    2.27831616735210
H           0.82621227853928   -0.46502254879098    1.68875644984905
H          -0.50307221758143    1.93180116332993   -0.18398516156011
O           1.44543235316852   -1.65720913222999    0.82516979315053
H           2.16392251617059   -2.05709421514993    1.31769282138437
O          -0.05874322136241   -0.45757329707843   -2.46757307968143
H          -0.17495929302208   -0.91583950015729   -3.30042035674022
O          -0.39962639193891    2.09392444834172   -1.74435235717536
H          -1.23587717104176    2.39251646980789   -2.10746779343763
H          -0.25038021455830    1.18383539737796   -2.08038564160061
O           2.37223068680053   -0.28665001827015   -1.14483970481310
H           1.62575052189143   -0.27441431946057   -1.76791230626680
H           2.31161449607695    0.54485283310662   -0.63882819994450
H           1.86906500597504   -1.18704198191993    0.03553123923797
O          -0.94569720393814   -2.00352170405639   -0.58407078225478
H          -1.56166287998545   -1.54732687041548    0.03994653236076
H          -0.44767960920559   -1.05534259276452   -1.75999427607418
H          -0.14261833024637   -2.15647661717694   -0.06740182600344
N          -2.34423232965870   -0.66054536484382    1.30146122298728
H          -3.35230273576920   -0.58078385801562    1.34863496660160
H          -1.95916093567486    0.27392387233574    1.19696329932755
H          -2.01894065743616   -1.00925829173888    2.19526547325887
