    26
        -50.44989772  Gyration_radius:  2.69090395525 Dipole_moment: 8.262
 S           2.02275673286925    0.99857022756779    1.84822886228494
O           2.07642403643439    1.57304985360730    0.41400611615755
O           2.39461954796674    2.01408016320469    2.76091315325858
O           0.50933844253468    0.63312316821801    2.01556510337426
O           2.72977175190105   -0.25323779915263    1.90071229910171
H           2.13452822355109   -1.52236947439374    1.10941101033591
H          -0.01324057920914    1.37407561953701    1.56673503633408
O           1.75692998880628   -2.21715416121056    0.51083869420673
H           2.36865556300479   -2.95417551337068    0.54270187575782
O          -1.08209724076030    0.19205505824914   -1.00568180858362
H          -1.89154226738909    0.07338916161981   -1.55004567957380
O          -0.64876233585848    2.33015620268876    0.51415842756877
H          -0.90912806687990    1.63595332559513   -0.13971683583166
H           0.12897272392635    2.76683387558137    0.15339514658563
O           1.55014145475741   -0.20511572410252   -1.29682334939842
H           1.93932660230228    0.84413839727450   -0.30493279269866
H           1.65701810292592   -1.04694799033064   -0.81342563993499
H           0.58300610653329   -0.06403629667371   -1.38302285322704
O          -0.88686663295804   -1.56752673688968    0.98553371487095
H          -0.64734653986002   -0.93354193005642    1.67370275832735
H          -1.13417577921286   -0.49027246292696   -0.29344525014961
H          -0.06024005095691   -2.03675520950590    0.78779143129911
N          -3.40619791201095   -0.23461799413978   -2.38163183917811
H          -3.31185559157955   -0.26064575812848   -3.38917313944988
H          -4.08589592297160    0.47862456715561   -2.14847389467996
H          -3.77414035785888   -1.12765257942078   -2.07732053676630
