    26
        -50.44962125  Gyration_radius:  2.52324225215 Dipole_moment: 3.571
 S          -0.64997707109353   -1.17396437641595   -0.19314121454674
O           0.06759420026803   -1.71000837620863   -1.33354409455419
O           0.23687724127760   -0.78372605594932    0.89101948688559
O          -1.51098499253757   -0.04769773178859   -0.57650722455949
O          -1.58391718859555   -2.28595291976647    0.38740722231302
H          -2.14799783789832   -2.52096868463402   -0.38666908435389
H          -0.77020870007891    1.25578305485545   -0.51240292159939
O           3.03723689095157    0.76240037148919    0.78020339571829
H           3.80611678426253    1.24239423436527    0.46514017846414
O          -0.26329074360569    2.13817064461574   -0.49385195309129
H          -0.93429048853621    2.81975707423705   -0.56570496618863
O          -0.17834090044975    0.49591114272277    3.02537080758739
H          -0.16754991691428   -0.10479603211860    2.21925575186031
H           0.33367359193015    0.03523211748225    3.69358963796457
O           1.12240501880848    2.14190184993552    1.64248429542737
H           0.54156459912545    2.18472418339918    0.79313889652446
H           0.58713651731261    1.52881544973736    2.30149748965384
H           1.95597303600790    1.57647114017756    1.34950929602129
O           1.79012413732199    0.28973146178434   -1.45323918977314
H           1.25624338618761   -0.53438874481161   -1.46062883284628
H           1.15098330977704    1.01042403243002   -1.47786517455990
H           2.57892957846268    0.40835220302806   -0.03701779516842
N          -2.60747724857661   -2.31413627876232   -2.03119013840051
H          -2.85345080762274   -1.33322833341483   -1.95991828598194
H          -3.16763128006597   -2.73948710046331   -2.75980600999377
H          -1.62974113572162   -2.34171432592669   -2.30712957279926
