    26
        -50.44990173  Gyration_radius:  2.69054014876 Dipole_moment: 8.239
 S           1.71346916557939    1.73283530155990    1.59886324363488
O           2.27128299859104    1.32312183989720    0.21658962661169
O           2.12185313202363    3.05787039978787    1.88161957109071
O           0.16455934311973    1.66828314621586    1.37702582088035
O           2.00711639093040    0.71058749372889    2.56755919941433
H           1.29179285792728   -0.72547330147084    2.43361373225721
H          -0.00495243258368    2.03044937524799    0.44761314912872
O           0.89285541622854   -1.60670906228962    2.21499892250519
H           1.25148647870968   -2.22478879293680    2.85357643305587
O          -0.70437243197014   -0.36769457988907   -1.26139991114573
H          -1.36292817179990   -0.71368960448192   -1.90337544895395
O          -0.07325042301587    2.20942114390758   -1.09787168918572
H          -0.34948765735532    1.28532390822364   -1.31546216067098
H           0.85861947115592    2.27679225475621   -1.32757610356406
O           1.70120281988569   -1.07572363841501   -0.31887451471051
H           1.44687684191070   -1.46286960324311    0.54103477668872
H           0.86396303115587   -0.93674484755083   -0.81076733908783
H           2.11482974859307    0.32285100403284    0.01206082524974
O          -1.49680248645737   -0.58508215906461    1.27326347322054
H          -1.26105853962321    0.31226012944510    1.54208767258878
H          -1.11471588969071   -0.47809523110378   -0.36976189393327
H          -0.81410051686727   -1.14706110575322    1.67388034182664
N          -2.66958765718169   -1.31291029080805   -2.91099408820634
H          -3.38634568843674   -1.70640863276801   -2.31339202240968
H          -2.37670175770801   -2.02940458068577   -3.56347194230540
H          -3.08560404311293   -0.55714054634062   -3.44083965395982
