    26
        -50.45169189  Gyration_radius:  2.58326323208 Dipole_moment: 3.488
 S          -1.13874963628369    0.46798894892911   -0.18764093473430
O          -1.18592308383940   -0.94301368858485   -0.53730870055399
O          -1.55597727662010    1.37077156368323   -1.22617126997807
O          -2.10911192792978    0.60616045480721    1.04755505334488
O           0.19508820633854    0.83945806104030    0.33235532084770
O           2.58050443282967   -0.82852007064674   -2.11042543211425
H           1.67878169604416   -0.49400269715648   -2.32403593968776
H           2.81055477573462   -1.41144898387622   -2.83667141241173
O          -1.14776303740109   -2.05508540097731    1.81254346196138
H          -1.25346713562487   -1.81485689799240    0.86044185759629
H          -1.80131570771554   -1.51970410877767    2.27077859947682
O           0.07540297367597   -0.22754160001511   -2.79886133870563
H          -0.32798229068760    0.63747685050351   -2.65674987924938
H          -0.40249239426795   -0.79841104259459   -2.17705933088009
O           2.76917085511079   -1.98803223058104    0.24347441543436
H           3.67027282725513   -1.78581018688600    0.50296890606389
H           2.63977701344131   -1.55753271196986   -0.64308651180406
O           1.10974893502788   -0.86630269204254    1.82286865517360
H           0.73842538327924   -0.04656303178640    1.17875299318777
H           0.27914736440841   -1.45216104919588    1.93627577256342
H           1.76965802101687   -1.37330372904431    1.22084192589815
N          -1.89429123891357    3.20056579747704    0.90598664795648
H          -0.99739381665481    3.50843598718723    1.25895185502092
H          -2.17150984105673    1.59367836503411    1.19307052956563
H          -2.55286425618153    3.96429739095765    0.99052283581847
H          -1.77769083099124    2.97345668251990   -0.07937807978098
