    26
        -50.46954180  Gyration_radius:  2.39872157364 Dipole_moment: 4.982
 S           0.78520751482405    0.49489390340796   -1.29252937322409
O           0.22045438414190    1.92553423484080   -1.55578559975424
O           1.28933736266654    0.47235981777444    0.08244433651894
O          -0.37573230777862   -0.41124190382413   -1.41878744657840
O           1.80362123970065    0.18596202428912   -2.25794552412207
O           2.80191457888241   -1.77595789056839   -0.80549434458722
H           3.17637227047758   -1.25133183278189   -0.09265087629291
H           2.52864592727476   -1.10987200574867   -1.47847688263020
O           0.04946803314780   -0.88856194810558    1.99281886962973
H           0.61402713341827   -0.32624581867461    1.42113582756873
H          -0.78805061880618   -0.40211776644250    2.04575785183611
O          -2.54841428959359    0.95906346714788   -0.90790578965480
H          -1.80105479129698    0.38224578249414   -1.18594240775694
H          -2.38497287059885    1.80326888677488   -1.33513518952204
O          -2.05590250362317    0.93419007506389    1.68305002846869
H          -2.32608516623126    0.89671585710002    0.73010091231356
H          -2.84630089782693    1.14199990784654    2.18295244609551
O          -0.00254060306965    2.62174818020691    0.93457855608380
H          -0.76774987379798    2.16109202929985    1.32570891948270
H           0.72935218058694    1.98748015518111    0.99721938380140
H           0.08295875055510    2.33843180731435   -0.65844292101433
N           0.35281049237731   -2.47799532286144   -0.07327395570475
H          -0.08328025661731   -1.75663377679220   -0.72557411355143
H           0.17440857330160   -2.08664698787830    0.89386002866341
H          -0.01348124368913   -3.41316301807729   -0.20914769512703
H           1.38498699160601   -2.40521785700757   -0.29253502096891
