    26
        -50.44990172  Gyration_radius:  2.69116371801 Dipole_moment: 8.243
 S           1.54753935266298    2.45496435519023    0.28354403515423
O           2.29186259300296    1.25920600203176   -0.35396623133169
O           1.99266503024251    3.64956812476317   -0.33071677363195
O           0.05379344059835    2.16692067327655   -0.08769823885895
O           1.61285378696044    2.36388425648226    1.71771981721417
H           0.83228712146866    1.16877961890953    2.46268902883100
H           0.05988896120197    1.80306308220438   -1.03180919631934
O           0.41430528560363    0.34683710445132    2.82760605971483
H           0.62062287448543    0.33868844980047    3.76344079900887
O          -0.51769114258006   -1.15800203090997   -0.78455200337109
H          -1.08576710125931   -1.88275590562418   -1.12742614308097
O           0.25227943327552    0.89722123942571   -2.28362912983457
H          -0.04765165888192    0.05099826108717   -1.86924493869567
H           1.21127217174344    0.84724870965350   -2.34277747098711
O           1.65266271203384   -0.90962582962582    0.76698899139002
H           0.91642553374510   -1.18494424198272    0.18024648737278
H           2.10245717398102    0.37259547695235    0.14004708417655
H           1.23845505654610   -0.63580917193592    1.60798965664793
O          -1.71864319266158    0.33155879879312    1.06978759492108
H          -1.07256603363177   -0.66726719555330   -0.13121059501515
H          -1.14779432263728    0.22404935620090    1.84763384033402
H          -1.46992665921176    1.18987932947813    0.70320858822985
N          -2.24662577241264   -3.08033511968671   -1.67508408586316
H          -3.07592099386517   -3.01888548717486   -1.09699768902678
H          -1.89694488721584   -4.02897864851580   -1.62276730192133
H          -2.51983874319197   -2.89885920769606   -2.63302219506361
