    26
        -50.45720835  Gyration_radius:  2.51179683085 Dipole_moment: 6.170
 S          -1.75567192817524   -0.22110623326702    1.39084101283414
O          -0.43379014609511    0.20601962730556    1.89830935261826
O          -2.83573404973201    0.40921515841676    2.07349439270229
O          -1.78740078770515    0.04094014407121   -0.07136878927808
O          -1.84629549704053   -1.76453336111768    1.57523279163341
H          -1.10221778127495   -2.19593230937179    1.08626923837838
H          -1.35040771924285    1.55023675775037    0.00486825055628
O           0.03839491089704   -2.95623258893038    0.14496868947378
H          -0.29187740929236   -3.83413356051117   -0.05192975701599
O           1.99621891116511    0.20056581447214   -1.31309084861018
H           2.88550580241028    0.00817320302810   -1.61380671285449
O           1.20636365601192    2.74149870257063   -1.28487267577276
H           0.93388323264850    2.91502537634933   -2.18762185101769
H           1.56828218655087    1.82312907255141   -1.27928518121553
O           1.75456624611841   -0.92561567621817    1.00215877848861
H           0.99596070581204   -0.47544193993755    1.44129528645525
H           1.44063304396166   -1.82494064535830    0.84128742921563
H           1.93118495763123   -0.19407381410866   -0.38828389213152
O          -0.31791944398138   -1.29698972373719   -1.81387417674765
H          -0.96725734714413   -0.78728345176031   -1.28057535093468
H           0.48399215223527   -0.75100817199315   -1.83319424874394
H          -0.07563337704156   -2.41154473379931   -0.69101838229105
N          -0.76117814807562    2.31351422787410    0.46530363609158
H           0.01830373170650    2.61477158088438   -0.17694867512298
H          -0.39945472799140    1.72865842103230    1.26665427991942
H          -1.32845119435259    3.08708811380707    0.79518738336432
