    26
        -50.44990033  Gyration_radius:  2.6914339899 Dipole_moment: 8.261
 S           1.76657883390010    2.04887731971227    1.09013384976800
O           0.35558543818484    1.97087931099836    1.71729312981031
O           2.69616770731279    2.39446961600634    2.09957477206620
O           2.00568230232201    0.58142862717869    0.59870057786383
O           1.72840332569417    2.85333752719658   -0.10188249240564
H           0.92334592604314    2.31170574601603   -1.38685508537800
H           1.61779993364700   -0.02387469510154    1.31067892684567
O          -0.93315557999568   -1.15376002980618    0.13801837592445
H          -1.43273699036310   -1.98441226114851   -0.02347643178211
O           0.32015668527332    1.95379638845877   -2.08798832977882
H           0.28407279260980    2.62362946476833   -2.77244234494627
O           0.64261633523821   -0.79476689675172    2.24859494136401
H           0.25481950582374   -0.07695006394228    2.75853251185703
H          -0.02194045361998   -1.03984840597008    1.55879259699294
O           0.97199711037740   -0.69978029061845   -1.66880274065271
H          -0.24728743730293   -1.10937998116851   -0.57127790725132
H           0.70827361608304    0.14659608088793   -2.06438825522831
H           1.66879233812369   -0.46769890322991   -1.04144456316032
O          -1.39049354648919    1.47968872644197   -0.03690845332389
H          -0.94742176709275    1.68069637187340   -0.88376653243462
H          -1.41543135813821    0.50119096525358    0.02917554476402
H          -0.38215487878000    1.84662574057076    1.00547534998755
N          -2.18759071300206   -3.52009012963792   -0.41409446518932
H          -1.85406064333063   -3.82996235019580   -1.31860554209382
H          -3.19784534948540   -3.46955926156742   -0.45225805567738
H          -1.93417312305709   -4.22283864619275    0.26922063203808
