    26
        -50.47229273  Gyration_radius:  2.48068525385 Dipole_moment: 1.996
 S           1.13718886977478    0.41447091463150    1.93209166774649
O           1.02252251148430    1.21630115784045    0.71752672538563
O          -0.16213960327177    0.06913315442963    2.47131175477914
O           2.01888363778031   -0.72156472261036    1.74583381362418
O           1.83934636211975    1.33299632208546    3.01595249992225
H           2.75483369421021    1.24074942587804    2.77462413815896
H           1.30980146997076   -1.71794391261967    0.71391437880279
O           0.90447724021090   -2.28509084177682    0.00879618805248
H           1.08556875451918   -3.19096168749778    0.26427222977937
O          -0.54699982082724    0.38045098116744   -2.64742212605198
H          -0.44713381713840    0.48479295539974   -3.59378407716344
O          -1.06375951677222    2.22110067210372   -0.65500299659308
H          -0.22914057934294    2.08378505495172   -0.16653450193759
H          -0.94682023536802    1.73240421022766   -1.48965345943748
O           1.74463105262621   -0.07428247689960   -1.49392344264634
H           0.37137698768459    0.22898145285018   -2.28016710910126
H           1.61509608545745    0.46501914793167   -0.68588019999193
H           1.68105453320076   -0.98938198103975   -1.18750862269810
O          -1.54770000714823   -1.56255617139501   -0.97374436016739
H          -2.03892253781056   -0.51836869495055    0.12606812367950
H          -1.29834868731737   -0.96809835099125   -1.70430051209183
H          -0.70542860234147   -1.91189838083148   -0.62572049555881
N          -2.14150779889765    0.31033383935334    0.78388718840533
H          -1.40288372196202    0.21240473291085    1.53628189082209
H          -3.06941141557982    0.36640948502380    1.18674107376362
H          -1.88458484526381    1.18081369384370    0.22634024050172
