    26
        -50.45712003  Gyration_radius:  2.4382315418 Dipole_moment: 7.267
 S           1.18735037198041   -1.84227276897662    0.94098639639195
O           1.72445034068960   -1.19159078885482   -0.24122660712308
O           2.10318384607552   -2.56589616138097    1.74974271028476
O           0.38362436635666   -0.85562909903997    1.73106745059020
O           0.07268329852645   -2.83167828419051    0.38012481736380
H          -0.16255614558837   -2.38419430176373   -0.44749261091759
H           0.68813073393176    0.72725678811347    1.74694919897028
O           0.76686097557123    1.71657119495301    1.70852713882864
H           1.05892260352457    1.99255895686712    2.57787291877748
O          -0.15389952602806    1.21402318851041   -2.02442749176083
H          -0.02682012157801    1.59019071662535   -2.89583614363205
O          -0.80198174137447   -1.39036760152615   -1.78330746047062
H          -0.34446476697521   -1.86891386104932   -2.47627455207154
H          -0.50135890319575   -0.45407229404215   -1.86335044637039
O           2.04441228498614    1.35178901944909   -0.71539670136392
H           0.74159894103569    1.29236307679480   -1.55208280975961
H           1.78078292146145    1.71033763951296    0.14656363555252
H           2.10500519781910    0.37913765905875   -0.56617932744743
O          -1.49998617510481    2.00745488025600    0.20356337522612
H          -1.11371475537483    1.90778249716589   -0.68688796552829
H          -1.89970170362797    0.52365592932782    0.48628995600326
H          -0.73393672268159    2.11464762900792    0.79903787038461
N          -1.90040032016615   -0.53698212248803    0.65222268823323
H          -2.69179665370719   -0.84159278193255    1.20748325812580
H          -0.95608935220853   -0.74140890893320    1.16953523263099
H          -1.87029898434726   -1.02317016146385   -0.24750453091929
