    26
        -50.45722682  Gyration_radius:  2.57877790368 Dipole_moment: 6.711
 S          -0.91177239484810   -0.74929440071942   -0.01065682625046
O          -1.30154525745240    0.05842932822812    1.16880077000023
O           0.00069105085688    0.25075849448023   -0.81596157102133
O          -0.12036620477102   -1.90084296555556    0.34142821465534
O          -2.06477830183809   -1.03229973681307   -0.83571902205305
O           2.16432174187190   -1.08728551334306    1.53014010166555
H           1.89159681744613   -0.22209571274666    1.87963446313554
H           1.34753773351505   -1.49192833788227    1.18274684119926
O           0.74436467316992    1.06182718821055    2.54428610817249
H           0.63780795651322    0.83337403624629    3.46966559671211
H          -0.01778686105584    0.66198339432306    2.07704219779075
O          -3.29334872992811    1.05341654341795   -1.71299544366250
H          -4.22257643484637    0.88737356107890   -1.54277756326028
H          -2.82793017446522    0.19647982163072   -1.49531487009654
O           3.63238498081611   -1.11561010512520   -0.67689438899629
H           3.16956067664605   -1.03007511024769    0.19282113263003
H           4.24910048016765   -1.84214519570858   -0.57583392014248
O           1.33792445406725   -1.57351452800422   -1.94875300448839
H           0.93491710484698   -2.17114697585483   -1.30295161410520
H           0.56659745640937   -0.35960771629362   -1.39510075420191
H           2.25476772567798   -1.40025489272009   -1.62073507155339
N          -1.64012502273480    2.24457970816089   -0.08440559424224
H          -1.54194591994515    1.37613996860761    0.57353364585598
H          -1.84688515595967    3.10447789573574    0.41371674597244
H          -0.74652446721385    2.29307038191640   -0.57543736278441
H          -2.39598792696895    1.95419082898365   -0.78027881092817
