    26
        -50.44982211  Gyration_radius:  2.46802935386 Dipole_moment: 4.174
 S           1.97092864460831    0.60659502354706    0.45515294528951
O           1.09213072075272   -0.10942427408108    1.35743456495264
O           3.35694396995646    0.34967424477802    0.61016192416803
O           1.52011753226007    0.23665120383333   -1.00529914276891
O           1.66009512605188    2.09113496270741    0.49251881859147
H           0.62353787562710    2.17315179611942    0.40832070384009
H           1.46229008185376   -0.75614658797329   -1.08831901670662
O           1.11093741469776   -2.31651528608483   -1.24397975737264
H           1.79044585090191   -2.86713973592280   -0.85157254428329
O          -1.86363023820655    0.07484516191696   -1.14591524055515
H          -2.73987310061630    0.23664193024149   -1.49872172068136
O          -0.84022246854248    2.14141447292637    0.35966772025487
H          -1.15887927374513    1.43011355719551   -0.22771428284528
H          -1.07061502791731    1.84530329968835    1.27949630211600
O          -0.74324012638555   -1.84645481806740    0.49806440970780
H          -0.12646772208094   -1.26388670665595    0.98302003484580
H          -1.32919456620749   -1.24067968902392    0.01493316082825
H           0.34317595373967   -2.30349753529886   -0.59539800884397
O          -0.18021400431090   -0.56117290615941   -3.10736005215353
H          -1.28445839434802   -0.14029343964194   -1.91790091778670
H           0.51120925700799    0.08810455579740   -2.94061721380845
H           0.18382851204966   -1.40751916433988   -2.81827020537538
N          -1.14296671227724    1.04225558085339    2.78496912172482
H          -0.99657434610360    1.60000680793734    3.61618964108237
H          -0.28253424589586    0.53262960495093    2.59405362041712
H          -1.86677072287450    0.36420795076011    2.98708513534961
