    26
        -50.44982194  Gyration_radius:  2.46798481489 Dipole_moment: 4.167
 S          -0.65401232318096    0.66089323742525    1.89407907726222
O          -1.50366052831149    0.06633841532704    0.88222234925785
O          -1.03872503751324    0.42587403076055    3.23867467286401
O           0.79726277790548    0.10640978143842    1.65023537685190
O          -0.45732053132510    2.13771738993902    1.60836459132168
H          -0.21320327191112    2.20755191070176    0.59611248850536
H           0.76150392277837   -0.88889138019963    1.58889981711118
O           0.76806599774304   -2.45739300527065    1.23711947150574
H           0.21649860308194   -2.95323270106448    1.84443459554573
O           1.40002554815879   -0.07685301816798   -1.67908159487466
H           1.89224819472619    0.03657992434598   -2.49353029467126
O           0.04285940227816    2.16950973417550   -0.84490729023737
H          -0.86475994994093    1.99633069213678   -1.20986159998476
H           0.57260113654953    1.38693238200658   -1.08880574887758
O           3.00379159675100   -0.95621589559940    0.25474111078912
H           2.04754633988423   -0.38829321660018   -0.99976053640266
H           2.82386167439210   -0.28963675159770    0.92605193151751
H           2.56002928123464   -1.75768508666012    0.55993068670821
O          -0.61701465405375   -1.77185654141417   -0.83776152637306
H           0.24277326550085   -2.36284514373869    0.38541230413757
H          -1.10795119643526   -1.13072229489246   -0.28737788029300
H           0.01794631846003   -1.23379552449932   -1.33880315293870
N          -2.43543418677273    1.39701277971268   -1.50898221726809
H          -3.19977273714094    2.05853090547405   -1.46757821456595
H          -2.43517245193116    0.86401858575331   -0.64149410643500
H          -2.61998720093395    0.75372076049697   -2.26833431046045
