    26
        -50.47229282  Gyration_radius:  2.48009564196 Dipole_moment: 1.993
 S           2.21731040453503   -0.49324327691769   -0.18212740252104
O           1.53651085718873    0.48067886439476    0.66593608912864
O           1.66502212877233   -1.82266764703288   -0.02135003415348
O           2.29210978006046   -0.04882343685320   -1.56028059612684
O           3.71555170058594   -0.56896989073312    0.32922945329417
H           4.09976014136903    0.18574628869979   -0.10407219514173
H           0.79627696911637   -0.05207396746348   -2.13017493274843
O          -0.13967030415222    0.02592633438066   -2.44747978007324
H          -0.13245352540159   -0.26617274182771   -3.36034791576295
O          -2.10348243079601    1.59087151565217    0.71228403266001
H          -2.67789402761967    2.34881404880437    0.82210032958048
O          -0.43227066099355    0.29996971010326    2.49216763645634
H          -1.10555478495565    0.84387338643974    2.04502035569205
H           0.39618487744428    0.47952832995009    2.00695487113909
O           0.01365430292056    2.19674328497055   -0.68106092942975
H           0.67635767063371    1.67712345900205   -0.17981025985769
H          -0.09695530765491    1.71253074028675   -1.51077387819350
H          -1.31293906531700    1.90784765955511    0.18736624245975
O          -2.16169031154562   -0.73295584835358   -0.76230728525347
H          -1.49131909872495   -0.50349794486088   -1.43351063467001
H          -1.36289389136118   -1.57644282354061    0.32922532538320
H          -2.33470914313120    0.09385957854961   -0.27687047384486
N          -0.69690369350988   -1.90233389934179    1.09102269978494
H          -0.65395431081946   -1.12423622674417    1.81709664209490
H           0.26977553001241   -1.96086301703952    0.66269772964641
H          -0.97582382666598   -2.79123248009555    1.48906492045790
