    26
        -50.47229276  Gyration_radius:  2.48000349725 Dipole_moment: 1.991
 S           0.85101040916600    1.52679685615027    1.46172881204994
O           0.76288940785749    1.56680347906058    0.00510213290741
O          -0.43853846683805    1.27121300252430    2.07002020745253
O           1.90263806478851    0.63678464214583    1.91374012479020
O           1.28308759779136    2.97845489967406    1.92848902312177
H           2.22446476384400    2.94625963976897    1.79494169988165
H           1.44533071870757   -0.85023990621425    1.53695663615086
O           1.19531936464355   -1.75676018419803    1.22318722178661
H           1.45766592066634   -2.35786654255167    1.92215072948652
O          -0.29365559817564   -1.12034576047726   -2.47371459067554
H          -0.10366363337490   -1.49457434337796   -3.33413989331908
O          -1.27521336519886    1.35456732657050   -1.73992203003543
H          -0.48938367870637    1.63172153108905   -1.23032616143661
H          -1.00068513872612    0.53890209493385   -2.19646271692673
O           1.89553879918093   -0.52065431383210   -1.19371890264822
H           1.60521978493167    0.32291669234945   -0.78801917306886
H           1.92397485158650   -1.14675744860023   -0.45734489374831
H           0.58982319795949   -0.90248753727029   -2.05778749249173
O          -1.20222196025818   -2.08419245884118   -0.06058046057831
H          -0.95538072569228   -1.91047564035083   -0.98692235669882
H          -0.36542795723992   -2.05096454418709    0.44068480003910
H          -1.95245140677363   -0.73116919714780    0.32327123037461
N          -2.23767095031953    0.28456973235226    0.45371609080927
H          -2.04067526734657    0.78139556084634   -0.46760692318193
H          -1.57894543116033    0.70941856738852    1.16566853370023
H          -3.20304931131673    0.37668385219844    0.74688837225385
