    26
        -50.44982171  Gyration_radius:  2.46782162356 Dipole_moment: 4.157
 S          -1.59406854712913   -0.26791646971234    1.35415712241412
O          -1.70500391457980    0.37312503754018    0.05956423101368
O          -2.75198611721985   -0.95105778015830    1.80554231267056
O          -0.38596294317071   -1.27025713304760    1.26173983983709
O          -1.07917040122996    0.72046255939614    2.38354054645555
H          -0.25340760066686    1.18742877271865    1.94925538714673
H          -0.50287249268283   -1.84945276993302    0.45750705851857
O          -0.48345573062682   -2.65504284769155   -0.93262524667206
H          -1.35129750451839   -3.00230022420504   -1.14529364010396
O           2.11456260435793    0.11322501294010   -0.55061498169095
H           3.01425765130711    0.36583883697576   -0.76324955277900
O           0.83331319104883    1.81570239549270    1.19445804240373
H           0.33323007861302    2.40058729881799    0.56620633906429
H           1.29437161813701    1.16589450063508    0.63089935737797
O          -0.18608908648514   -0.32682231396131   -2.02071133150312
H          -0.82591531631414    0.04374949665662   -1.38176791428862
H           0.68471068657608   -0.05536442229064   -1.68637382715973
H          -0.35173008790452   -1.84151798150356   -1.50812379306315
O           2.05061049808023   -2.38070860099951    0.37906139288424
H           1.41414479782935   -2.81477589583774   -0.20313144495543
H           2.15684807959150   -0.80989992560793   -0.19913714706360
H           1.58268625758733   -2.23018812106646    1.20713652888215
N          -0.77833843305510    3.04022648253285   -0.56148306165441
H          -1.31149768599638    3.85150549024759   -0.27666352215294
H          -1.38251785980768    2.22458271988357   -0.48234747309410
H          -0.53542173173326    3.15297590216724   -1.53754523247862
