    26
        -50.46011211  Gyration_radius:  2.39805670109 Dipole_moment: 9.010
 S          -0.99589580569479   -1.32700259095829   -1.04131391523727
O          -2.34601051626430   -0.75619713508285   -1.08662923967803
O          -0.78908351320933   -2.54356824062640   -1.75128795760001
O          -0.07739077931147   -0.23376031515286   -1.78434371425026
O          -0.51885101323794   -1.34178586919967    0.34247443065737
H           0.75678104824899   -2.46777721440412    0.20545662394051
H          -0.25381572886559    0.63845839664545   -1.38748327555895
O           1.70519693460918    1.30437396971300    0.99928794420397
H           2.50527957227817    1.72026852537311    1.32325497159061
O           1.52748280206920   -2.94083608930145   -0.16159920514748
H           1.17722702396326   -3.33954496145054   -0.96472811593929
O          -0.13351524152836    2.25311383013999   -0.66814744108631
H           0.55215501473758    1.98696344715119   -0.00798615868177
H           0.31461988416926    2.78615958533304   -1.32707166894129
O           2.45179143850607   -0.49827736358104   -0.71045032093435
H           2.01119932195484    0.54844878944800    0.40754901630920
H           2.36731423752536   -1.43037063015342   -0.40738086793765
H           1.73570860080867   -0.41065489580222   -1.35746401479723
O          -0.50049485342222    0.30729999721035    2.36313523257370
H           0.32698144381727    0.75140429325904    2.11429749663764
H          -1.64674485366255    0.82665483127964    1.42869368158176
H          -0.47085872258400   -0.52473982032300    1.84797896426813
N          -2.29132602263816    1.12399963372862    0.62346964493818
H          -3.20510727655991    1.40906821388972    0.95853068136440
H          -2.38034806081503    0.27686490288660   -0.07756461736262
H          -1.82229492530392    1.88143670931388    0.11932183497270
