    26
        -50.47229301  Gyration_radius:  2.48061392056 Dipole_moment: 1.996
 S           1.28358231738137    1.68030788224953    0.85191654600136
O           0.46516891465483    1.64170454407856   -0.35626199099068
O           0.51948023691356    1.31946535142063    2.02846762044027
O           2.51299297358562    0.92771118463610    0.69399773703427
O           1.72415956677884    3.18932870033040    1.05218090489928
H           2.46817312802261    3.24653261797278    0.46211561767768
H           2.11409907488314   -0.61727313624577    0.57012717642915
O           1.85295112256394   -1.55964890923593    0.40665759001324
H           2.50915152365911   -2.09550478968722    0.85490266492393
O          -1.37356822825753   -1.25916639698739   -1.99610063009078
H          -1.60409684957031   -1.64932626890601   -2.83937936551056
O          -2.13444329510893    1.12240862695640   -0.82324462673115
H          -1.23861080534758    1.50919108328395   -0.78070533759920
H          -2.03443864516579    0.32199525910242   -1.36955248123677
O           1.07169697374680   -0.35885296850166   -2.00183504679349
H           1.54409392913287   -0.94393335447994   -1.39371757291918
H          -0.43494079077761   -0.92440776794133   -2.08551129801484
H           0.92920312087381    0.46455201030221   -1.48980139952541
O          -0.80640953237133   -2.20428411382723    0.52644560347642
H           0.15851194670574   -2.05776665796865    0.53021658155869
H          -1.41230081269400   -0.92629613639315    1.26169622211483
H          -1.08774980074769   -2.04753526482594   -0.39307656678564
N          -1.71289683492894    0.05568538227340    1.53635604062121
H          -0.84194281941349    0.58639747882476    1.82110507406526
H          -2.39940052113193    0.05136719882576    2.28140430033240
H          -2.07246590337834    0.52734844474408    0.65159663660970
