    26
        -50.44982204  Gyration_radius:  2.46801183171 Dipole_moment: 4.169
 S          -0.25214751352746    0.89100512990291    1.89662162169940
O          -1.29859590447635    0.73276146969223    0.90707465552251
O          -0.67301414871513    0.85766835537749    3.25047823380875
O           0.79490984550217   -0.25303538810112    1.63560837959981
O           0.57549430389795    2.12432677123741    1.58813138205436
H           0.80337034487418    2.07423784973687    0.57087685634523
H           0.31805353596812   -1.12824782231642    1.58713033490029
O          -0.38242866269969   -2.53641454107431    1.25486829462434
H          -1.08554452959253   -2.73100121930880    1.87670743471196
O           1.18871732988391   -0.69846378210911   -1.70037314693516
H           1.66490921739451   -0.81901604714013   -2.52328563192315
O           0.98470693811111    1.92032535800977   -0.87361413003994
H           0.08687914961879    2.16637488093641   -1.22064288865637
H           1.10758616787776    0.98301972983514   -1.11621290764321
O           2.26844789915477   -2.19401552815833    0.21886434058925
H           1.51991036038463   -2.71245764063868    0.54033758829386
H           1.64226524131538   -1.26327540008632   -1.02735306706826
H           2.41758151150255   -1.51484369908349    0.88508620175142
O          -1.35555008317886   -1.31251776603386   -0.80638086406993
H          -1.49839774101108   -0.51801599431007   -0.25551424653085
H          -0.55717397576741   -1.11600618293667   -1.32372337950314
H          -0.82652069583806   -2.22086880678065    0.41023554336595
N          -1.59194046066801    2.32698506828134   -1.48644825659881
H          -1.81125614675983    1.85589564228098   -0.61088267896398
H          -2.05753911614224    1.82632446236549   -2.23290635673571
H          -1.98272287712633    3.25925509042526   -1.44468330259733
