    26
        -50.45601902  Gyration_radius:  2.4494451918 Dipole_moment: 7.010
 S          -0.11942285747731    1.50800961513892    1.33595598099615
O          -0.80752335734627    1.84489683019616    0.10340098039260
O          -1.02107132407121    1.29090071734417    2.44700770636998
O           0.74399265250619    0.31349096392019    1.15750661029630
O           0.85454916899706    2.67458319933739    1.69171342188592
H           1.40156072854423    2.75491157942780    0.88761908314271
H           0.02412507340602   -0.79930725482034    1.87383465567120
O          -1.31162588139401   -2.28382592521844   -0.18029094603895
H          -1.52181513112252   -3.14164205909414   -0.55173648479961
O           1.19534311199067    0.12373381383310   -2.56926051704111
H           1.28318229841545    0.30732901655418   -3.50514379566476
O           1.58628944189100    2.42942717240981   -0.89193157913493
H           0.61808294029391    2.40166580273440   -0.82509359803919
H           1.81159284680956    1.62571222828096   -1.38333178292832
O           1.19773450730364   -1.70762303469805   -0.54860411327316
H           1.22831238431607   -0.96244361739102    0.07987771765833
H          -0.33669586067015   -2.12398181733869   -0.37122206076908
H           1.35324797413364   -1.27947231520774   -1.40682204502810
O          -1.35262795586343    0.09517455444481   -1.81970820253745
H          -1.27538608314667    0.80217646807632   -1.14769115335876
H           0.22502716983441    0.15568885793688   -2.36978183763603
H          -1.55530131621883   -0.70812005816434   -1.32301458291213
N          -0.86637166334756   -1.27540844497402    2.26886760531350
H          -0.69571435244203   -1.89290991662141    3.05481046792946
H          -1.30119459278218   -1.76178140617257    1.45569769384788
H          -1.35828993256686   -0.39118496000419    2.53734077563521
