    26
        -50.45601910  Gyration_radius:  2.44965916439 Dipole_moment: 7.017
 S          -1.25860572951537    0.97583586748481    1.24026851962561
O          -1.94111405038347    0.53126572385665    0.03909859222587
O          -1.66352383289017    0.24814701930151    2.42390122408142
O           0.21492051315551    0.88564151715818    1.08264868706929
O          -1.56193330070752    2.49282346150026    1.44696374860995
H          -1.27638560431014    2.88972268829791    0.60241278826612
H           0.62437189236453   -0.29951453890399    1.91798461935909
O           0.95873945269857   -2.45823936860854    0.06269963462094
H           1.50258813575807   -3.19079948239756   -0.22963877769898
O           0.67171895020320    0.75875353994623   -2.65013569461066
H           0.59344838486569    0.85012116603928   -3.60031403290378
O          -0.89375601222697    2.65898817337258   -1.15978419907468
H          -1.47756043551337    1.89543314959372   -1.02237329871881
H          -0.12235312802678    2.28706525687183   -1.61230194347461
O           2.08362667258438   -0.18625782640076   -0.51708840836940
H           1.85341264860694    0.11962914337504   -1.41013413999432
H           1.51819819119094    0.36211638907207    0.05808849444292
H           1.44542528550187   -1.61959491575229   -0.20647103335471
O          -0.90840802540489   -1.16557836925901   -1.72531232783134
H          -0.41335684305612   -1.77701522306272   -1.16488408937279
H          -1.41499036823858   -0.60104430623772   -1.10723978170067
H           0.03709588482345    0.04451721185996   -2.38657633836932
N           0.43341571810085   -1.25026278447581    2.40303898182134
H           1.01499737317049   -1.42909218086383    3.21414746396859
H           0.54587742699020   -1.96754934726570    1.65461507519157
H          -0.56584919970839   -1.05511197453031    2.64638622611466
