    26
        -50.45601907  Gyration_radius:  2.44947998918 Dipole_moment: 7.014
 S          -1.19948873133687    1.06836606677033    1.22339346971848
O          -1.71134774781387    1.05507420295883   -0.13460377588671
O          -2.00873369566369    0.29520390912214    2.14105562590157
O           0.20334126097773    0.58485680319341    1.27147050353312
O          -1.14567305565884    2.54859111235514    1.71583398416575
H          -0.60017139106169    2.98542821965033    1.03493208181768
H           0.12051680418586   -0.79379962984366    1.87349177056113
O           0.27346200853794   -2.60105666412776   -0.34449474902772
H           0.66073669515709   -3.39575508416046   -0.71388761112192
O           1.37137511275261    0.97664659206821   -2.28338950943516
H           1.51647161800760    1.24713626537182   -3.19063937129543
O           0.06635696457545    2.96065423255392   -0.65780277535020
H          -0.70781873706497    2.38851669550473   -0.78352337255450
H           0.79358805143096    2.46506973023895   -1.06245969914004
O           2.03060208782428   -0.68727800865682   -0.22631512065275
H           2.07329975106870   -0.17893051036856   -1.05328876546984
H           1.51584989799488   -0.10691966306466    0.36480665026671
H           1.00121750213366   -1.90606812996789   -0.34272986922418
O          -0.79931679726197   -0.53670944182179   -2.05663993838896
H          -0.60005828004382   -1.35168686030092   -1.57784733182616
H          -1.26325245640627    0.03475169885828   -1.41210030991780
H           0.53639167642272    0.44254293865968   -2.28298151758208
N          -0.39973255488462   -1.71752972626345    2.10095165172135
H          -1.34519667704496   -1.28669195615114    2.22974635514256
H          -0.06117089291792   -2.19398031260401    2.92951425114363
H          -0.32124841390914   -2.29643247003087    1.23750737294302
