    26
        -50.45601885  Gyration_radius:  2.44939668635 Dipole_moment: 7.005
 S          -1.81344973924327   -0.69211416554715   -0.55298966710304
O          -1.55754417944345    0.61622606490454   -1.12645898900143
O          -1.80541259258406   -1.75362911210000   -1.53664576285143
O          -0.83840148807792   -1.00502702813295    0.52203851200629
O          -3.20756982533795   -0.65922068800745    0.14808880271123
H          -3.12089420711406    0.08600869857271    0.77194436090223
H           0.08612584275858   -2.03221176779561   -0.07611835417153
O           2.42916409037304   -0.58111647278495   -0.85638342643767
H           3.38595103787806   -0.53120657509595   -0.86425479561369
O           0.51484211341915    2.36789525704094    1.47385360881952
H           0.64276413339699    3.30130900269809    1.64586535195541
O          -2.25169501707326    1.61526138633700    1.23660629284604
H          -1.39376183620435    1.76972837266030    1.65897270595704
H          -2.04791194552968    1.59873858056666    0.28747436679388
O           0.81838397792225    1.80473373297502   -1.10419869301469
H           1.42645215721227    1.06390224253559   -1.22469870352469
H          -0.07549684728661    1.43027812190246   -1.23899154826318
H           0.62110103777216    2.24867694856549    0.49570945354288
O           1.50182996350976   -0.17410747593901    1.53969033122539
H           0.59762625774531   -0.49109241243817    1.35789811931354
H           2.14408342349043   -0.40172358211836    0.09167091487947
H           1.37150773834894    0.77030972906111    1.72672909655519
N           0.57379964769813   -2.52237875884965   -0.91155628502238
H           0.83414742001164   -3.48638689993091   -0.73534353067427
H           1.38896858217867   -1.91676582687328   -1.14724199520314
H          -0.22460973582308   -2.42608739200052   -1.58166015658183
