    26
        -50.45601904  Gyration_radius:  2.44949314042 Dipole_moment: 7.011
 S          -1.32755725507598    1.49035402890102    0.29741510347460
O          -1.43632667168803    0.95138241747245   -1.04568241700936
O          -2.46233424360264    1.16143539409454    1.13330035176971
O          -0.07760933735594    1.03538439959251    0.95673328040746
O          -1.20281648142110    3.04290916400743    0.19725785011434
H          -0.43368722590059    3.16275839109688   -0.39124161371462
H          -0.52056548740830    0.01196744657584    1.97074139612985
O          -0.01596411299161   -2.53103221981767    0.75086219615461
H           0.34070051620595   -3.41534679695526    0.84435961526983
O           2.07848689745937   -0.03644175962891   -1.92988083994338
H           2.50503388094401   -0.14559792201639   -2.78044635237578
O           0.66755272100028    2.45655604349759   -1.65416064438294
H           1.40066376181551    1.82625358953365   -1.59450374817251
H          -0.11370213559207    1.89720625452749   -1.79365896386321
O           1.89363496172422   -0.76599400630646    0.69149199990057
H           0.77418210352444   -1.90876794820806    0.72124022887705
H           2.23823938699371   -0.62862419389229   -0.20649555375839
H           1.32259111069856    0.01218798084660    0.83155479105014
O          -0.26106242720910   -1.29176955741215   -1.84825962492604
H          -0.79994854021536   -0.50150640325281   -1.64210159603416
H           1.20998056351727   -0.50979305695133   -1.99205914099293
H          -0.32226411749170   -1.85380801111778   -1.06508100715615
N          -1.20995054209275   -0.73377406193013    2.35004737402902
H          -2.08211660169087   -0.26758441175505    2.00626403119957
H          -1.18794407276962   -0.84840284299556    3.35727310179060
H          -0.97721667121144   -1.60995193785893    1.83503019234061
