    26
        -50.46011206  Gyration_radius:  2.39812704256 Dipole_moment: 9.013
 S           0.41378191845520    1.74560990080361    0.78579074404705
O           0.18233823904285    1.51987922471976    2.21617124536177
O           0.88830323003568    3.03348833220503    0.40764974747463
O           1.59844004643629    0.72287337186688    0.40906643750546
O          -0.74501326246516    1.27670010652028    0.02401684320613
H          -0.47909948456623    2.09012750739709   -1.45349800001270
H           1.35436071560011   -0.16378678322250    0.73097949982302
O          -0.00970382201881    2.46481853791540   -2.22270353022081
H           0.55873776347949    3.13361399632584   -1.82750604712704
O          -0.17464186851458   -1.86853177459853   -1.44455390812369
H          -0.16015273501417   -2.52187363803377   -2.14524659132692
O           1.04768224246573   -1.89913715102307    0.91480030940392
H           0.57402909366614   -1.98032375144071    0.05120281519773
H           1.90275938157187   -2.31650345083909    0.79735208682960
O           1.27049991383275    0.12357310968220   -2.26570921702776
H           0.31184786812794   -1.06569418891652   -1.81032160448757
H           0.77220503014884    0.93254391868674   -2.52078438772416
H           1.68632313462329    0.37504837318264   -1.42733038560711
O          -2.29147697629189   -0.82339929712258    0.02155426044170
H          -1.97082253483211    0.08987158259764   -0.12652115108112
H          -1.72955064411468   -1.35334789901902   -0.56779286101011
H          -1.64241076814735   -0.80386603781421    1.44735460875450
N          -1.01442908196525   -0.72086702082860    2.31425493167603
H          -0.25219334769045   -1.39549104032362    2.20604375740774
H          -1.53322484108697   -0.87891169254764    3.17122025883963
H          -0.55858922077346    0.28358578383204    2.31451012778158
