    26
        -50.45720841  Gyration_radius:  2.51180327749 Dipole_moment: 6.172
 S           0.32122492895494    0.93996455550660    2.01978814139999
O           1.10868955003052    1.37316137100611    0.84508373707384
O           0.02404193560691    2.01374215553546    2.90779267787618
O          -0.90658593676087    0.26841307397103    1.52091218659591
O           1.15736894107067   -0.14198529290688    2.76472266842785
H           1.34582475067084   -0.89110355628631    2.14655106028246
H          -1.37205344570201    1.42712271486077    0.56217918210747
O           1.54116622613435   -2.23231746033227    1.18297151965331
H           1.66075950376303   -2.98631628718803    1.76235771611493
O          -0.13856529583140   -0.94541406917848   -2.19851047575709
H           0.14499651901142   -1.41762513201691   -2.98264290010894
O          -1.70688382511359    1.18169558698071   -2.51243401417977
H          -2.58759527404804    0.81442771069976   -2.60613934280006
H          -1.09223196900261    0.41107369025130   -2.46163932963533
O           2.00972035250702   -0.39504443074947   -0.86825847516409
H           0.70778661638619   -0.68714127708068   -1.71670255550089
H           1.76555844729246    0.34074003682308   -0.26003947511109
H           2.17344418903248   -1.14662204272255   -0.28383343250728
O          -0.87610759475176   -2.05699359904853    0.26463274304253
H           0.60556804495178   -2.29148313119339    0.82290004100441
H          -1.02667496018685   -1.23579066979055    0.78299895113355
H          -0.77667598253856   -1.76584149152290   -0.65566683012881
N          -1.12015729062296    2.20886329612944   -0.12100890689681
H          -0.07511453691316    2.17654582224317    0.02909482857482
H          -1.50921587115970    3.10239855490041    0.16050418150265
H          -1.37828804285256    1.93552987107873   -1.10561390703532
