    26
        -50.45720837  Gyration_radius:  2.51190433497 Dipole_moment: 6.176
 S           1.43532255035114   -1.17732262985154   -1.27382131279077
O           0.05664385592093   -0.90463452518723   -1.73512219600898
O           2.38190087321397   -1.17179272124946   -2.33865747006453
O           1.76780861277611   -0.18164009094398   -0.22247789135665
O           1.42579960549615   -2.57455790042812   -0.58642249058849
H           0.77871983810075   -2.56519001075795    0.16188154954198
H           1.38389473525738    1.09897896175138   -1.05483194602920
O          -1.68803840322357    1.15074598410819    1.25496865767757
H          -2.50611487562374    1.27570533160516    1.73810650613610
O          -0.17975458559736   -2.53206253751243    1.52052949394730
H           0.14915738200344   -3.20395963981559    2.11961058872605
O          -0.82235219679877    3.14067263516991   -0.28557550382078
H          -1.21389774599651    2.42410584180809    0.26891169092526
H          -0.37137034400950    3.73076136217231    0.32087787103018
O           0.62136929706296   -0.15131840264532    2.15901056869667
H           0.11883150596662   -1.64681869530766    1.88888439013506
H           1.17156439882050   -0.10520485803232    1.34604689934031
H          -0.13959754259403    0.42598443367997    1.98799709705360
O          -1.95313841015648   -1.06101930660831   -0.05857765672729
H          -1.82281480663376    0.31782431972251    0.70428058938381
H          -1.27999027952062   -1.02764766953228   -0.77732956508157
H          -1.64771844696406   -1.76749710360748    0.52522161698891
N           0.74387188497939    1.57009893127654   -1.76862757967826
H           1.26231516896492    1.95755600218268   -2.54973826511962
H           0.11897040807642    2.27441140055781   -1.29523077996748
H           0.20861750004321    0.70382089750201   -2.04991485251447
