    26
        -50.45720841  Gyration_radius:  2.51182706405 Dipole_moment: 6.174
 S           0.71821661562464    1.72515113028505   -1.25543243692857
O           0.48953250016909    0.39204482552591   -1.85389188149245
O           0.38392442921710    2.78959784820670   -2.14150107304812
O          -0.04955108279202    1.79046394885608    0.01483330963241
O           2.22626742854392    1.81037602804707   -0.87707058868545
H           2.44676519839980    1.07822751258888   -0.24935516164487
H          -1.43698662708178    1.35197286321397   -0.58700216271499
O          -0.67117400805666   -1.96848420501462    1.19299343679208
H          -0.60449644408228   -2.85026629995267    1.56216997081072
O           2.80985629715131   -0.04027146424810    0.92680476886422
H           3.56078452021228    0.29514106503543    1.41888316056361
O          -3.02800568695573   -1.17941916722375    0.24173590536433
H          -2.17134511954941   -1.54195325316663    0.57180520891858
H          -3.51095863857388   -0.88879431454788    1.01741523293661
O           1.21216245546942   -1.77607859876151   -0.56873976752110
H           0.95392220675991   -1.02757959481263   -1.15516085495675
H           1.99566036834428   -1.45742749906311   -0.10200334279620
H           0.02923412182275   -1.92347639321548    0.47006701626392
O           0.56022563751498    0.35789115579253    2.15080359148870
H           0.28152250011743    0.99566968653310    1.45701716678025
H           0.03847893051740   -0.44390319024250    1.98798986085852
H           2.00216721894072    0.09166526543872    1.50876312107553
N          -1.98785524978616    0.75143509527032   -1.27767098386175
H          -1.15621385258037    0.37258573484093   -1.80754217366620
H          -2.58762324795924    1.30957192886026   -1.87582287679088
H          -2.50451046129837   -0.01414009818055   -0.77008842620109
