    26
        -50.45720844  Gyration_radius:  2.51185114638 Dipole_moment: 6.176
 S          -0.29320743692287   -1.73867071742856    1.39979677630883
O           0.15907250147329   -0.42382479428432    1.90400104260424
O          -1.14932210330306   -2.41377552883226    2.31699340253114
O          -0.94349102128259   -1.52045848256202    0.08188037917458
O           0.97932525835824   -2.59751346669975    1.13929772885060
H           1.56093777588192   -2.12973497027471    0.48997858925185
H          -1.94195187203724   -0.39833198263285    0.55396779253583
O           2.47976852515992   -1.44686937010939   -0.71647428382096
H           2.97706799486039   -2.15295090204294   -1.13205741130178
O           0.45382731589055    1.93030497630262   -1.34821712103394
H           0.96812821779182    2.62613848933065   -1.76006293665759
O          -2.01227799454036    2.50722334552801   -0.53127068065561
H          -1.07840309043520    2.36404871240896   -0.81699785487430
H          -2.54804862326596    2.43086697285794   -1.32276445023407
O           0.38112789576386   -0.77250345784810   -2.07979569982450
H          -0.20551263326295   -1.12389205519315   -1.37401566506137
H           0.32821896548689    0.19325434471810   -2.00150361776945
H           1.73697288835636   -1.20737781262416   -1.34841247400173
O           1.91973302552095    0.97564762340202    0.55637161652462
H           1.29920452503989    0.50912940728603    1.16311235352433
H           2.45280111955413    0.26996860468426    0.16764831647350
H           1.00984785342541    1.60394177707730   -0.57391308396918
N          -2.14012331352818    0.45363215937700    1.16722472700905
H          -2.96042660845965    0.32300690464487    1.74952128022449
H          -2.18269993418634    1.32806944632632    0.58047433270598
H          -1.25056925164083    0.41067075652462    1.73521693151124
