    26
        -50.44364328  Gyration_radius:  2.49266512395 Dipole_moment: 5.405
 S           0.31259892438388    0.40531248291978    2.27361276144636
O           1.64410021477636    0.20872965501818    1.77297903852074
O           0.14568279983233    0.87831289446884    3.59704215166971
O          -0.43479889008540    1.35318443935557    1.26684242000666
O          -0.49422840262246   -0.90478242863165    2.08812135515716
H          -0.05683445814513   -1.46553261836894    1.37382260175547
H           0.24490925757264    1.93270450413378    0.81077011626084
O           0.64500166492958   -2.38657277924636    0.30798320364808
H           1.24560350557963   -2.95741139608015    0.79141677213507
O           0.56320835954084    1.15133930862442   -2.18756932605694
H           0.49880380650619    1.19839432768001   -3.14180613519834
O           1.13195391494953    2.81570567960260   -0.15742037747213
H           0.70873426207013    3.65923316485449   -0.33088679051009
H           1.06782910463211    2.28821299744053   -0.98142804108163
O           2.16504461703853   -0.58187901847553   -0.74033659407909
H           1.67886216394468    0.02571855720791   -1.32233017707656
H           2.21879531500435   -0.14527724232260    0.12982636544323
H           1.23424422201717   -1.74649520487975   -0.19712155560919
O          -1.77075521883586    0.73706183028135   -1.12806540086085
H          -1.98528835301138   -0.22127802725848   -1.00228611608856
H          -1.59618940445624    1.06449087008675   -0.23582285347786
H          -0.35922378425119    0.95701087148693   -1.84523273953500
N          -2.20218546603159   -1.82576465488646   -0.41928159025892
H          -2.89442502240001   -2.44790909439761   -0.81696199776728
H          -2.41290480645409   -1.70863752437623    0.56528918597033
H          -1.29853833650284   -2.28387158423423   -0.47115625692362
