    26
        -50.45720840  Gyration_radius:  2.51186494442 Dipole_moment: 6.174
 S          -1.83049912648033   -0.21373892757603    1.29277030887754
O          -0.53527618962499    0.20482582884949    1.87144281460687
O          -2.94215644169973    0.42086005444541    1.91841816889946
O          -1.78210305192624    0.05176776040003   -0.16819250519722
O          -1.93909770858429   -1.75712999685800    1.46834772413030
H          -1.17279450636874   -2.19121309718773    1.01766545305864
H          -1.34084372976894    1.55943326109121   -0.06571891530252
O           0.01212807044094   -2.95612689218865    0.13632592439864
H          -0.31269924943598   -3.83116293455334   -0.08128955315211
O           2.06675945693831    0.19090464835939   -1.19955118358252
H           2.96930519457306   -0.00813905292726   -1.45264017710610
O           1.29208951282723    2.73699212771871   -1.20911882077913
H           1.07153869897459    2.91396307239552   -2.12529813991470
H           1.64821647769931    1.81672576884975   -1.18534168904168
O           1.69173763315036   -0.94073817841167    1.09540027788767
H           1.38072218174829   -1.83717885691274    0.91408847991933
H           1.94891434680699   -0.20588599681774   -0.28094908741320
H           0.91333492133646   -0.48616967928751    1.49325241792147
O          -0.22637594735005   -1.28794734303991   -1.83288126054825
H          -0.05272357310761   -2.40804907024046   -0.70265023366647
H          -0.90114581291298   -0.77647369437676   -1.33402264723771
H           0.57884647375349   -0.74714741710953   -1.80520288088444
N          -0.77208513924016    2.31689281209935    0.42830247045762
H           0.04320863131282    2.61472470015584   -0.16950451009058
H          -0.45818880150173    1.72663333779117    1.24607293683440
H          -1.35081232128876    3.09337776651580    0.73027461747812
