    26
        -50.46954180  Gyration_radius:  2.39867739834 Dipole_moment: 4.982
 S           1.08147857512738   -0.74145221060629   -0.90061714352538
O           0.48514018858730   -0.67732060355249   -2.34127763903190
O           0.07730079313296   -1.37329661434632   -0.04169652321389
O           2.32439317191317   -1.46227373882645   -0.91757440480379
O           1.27613472624901    0.66702963915780   -0.49679977929213
O          -0.39728970355236    2.15183503337474   -1.85869743758143
H          -0.38033923153387    1.75998538023493   -2.73509538039468
H           0.31318696197889    1.69041222654808   -1.35789701023422
O           2.28795692280246   -1.89358740163222    1.68388527930838
H           2.47045950139278   -1.78585789935166    0.72144549752736
H           1.55315871972450   -2.51212500962496    1.71694327266794
O          -1.25463309967682    0.01380049740096    1.78572629963808
H          -0.87244774071588   -0.63478051951189    1.15713044532246
H          -1.75917058017913    0.61889835717007    1.21987447449760
O          -2.42637559787041    1.38262208236370   -0.35970653024639
H          -3.16569025021515    1.98515405536251   -0.45005262298676
H          -1.68377310711706    1.76458130801097   -0.89369424958596
O          -1.99423850502702   -1.01812728488315   -1.65371186839190
H          -0.49896442253268   -0.80316158280032   -2.23936445037924
H          -1.54851853797767   -1.48805699163241   -0.93095166168775
H          -2.32718043585020   -0.19535652022797   -1.25004868255844
N           1.30125058012527    0.53602386255156    2.07126470893704
H           0.25677271546025    0.44698355939828    2.21770487210652
H           1.74443047054494   -0.42210973213821    2.13743829751445
H           1.39492057847933    0.77361671943464    1.03646378407792
H           1.74203730670932    1.21656336814262    2.67930844235709
