    26
        -50.45720844  Gyration_radius:  2.51169798485 Dipole_moment: 6.173
 S          -0.61583817540396   -1.79326462427793   -1.21265443900323
O          -1.08342909138323   -0.43624894438764   -1.56977146049721
O          -0.38088317241749   -2.61123531313216   -2.35527576334847
O           0.59744690464759   -1.64784310782719   -0.36757145370180
O          -1.71394173226051   -2.44172937754386   -0.31922636624379
H          -1.86090706456315   -1.87632684744222    0.47928665427247
H           1.38938156915978   -0.70243009713975   -1.34601890065586
O           0.47543839415216    2.00603281258518    1.22294538317302
H           0.30548241125547    2.78145904921597    1.75968870329154
O          -2.01491039951246   -1.03448835455260    1.90500916486697
H          -2.34363273426594   -1.64661225368052    2.56517029302833
O           2.32279747865958    2.18086384046736   -0.68433736317214
H           1.62147379970953    2.18845413865721    0.01024569301340
H           3.15223709233470    2.04057727660906   -0.22425838645800
O          -1.81818509162587    1.24503435880963    0.30272526337671
H          -1.61759612998169    0.67570820788348   -0.47611000782107
H          -2.19052988237511    0.63797447181943    0.95547840523885
H          -0.41442873196435    1.75142055932494    0.82468356979721
O           0.54322607380997   -0.65879114576978    2.08287652855225
H           0.67355215636282    0.28551438353198    1.90146902217159
H          -1.03931500645799   -0.89754356857329    2.09983662301152
H           0.68241207331083   -1.11128288203603    1.22165225346232
N           1.38230410915238    0.09528050860491   -2.05660191302884
H           1.80386010101015    0.96566824222698   -1.63759415247275
H           0.33298368599229    0.17651593616278   -2.14557373728004
H           1.81100137261717   -0.17270727951308   -2.93607361357707
