    26
        -50.45720846  Gyration_radius:  2.51167177585 Dipole_moment: 6.172
 S           0.45644556507739    1.99695435758034    0.93215573981253
O          -0.30013080964746    1.90384418910560   -0.33525493522345
O           0.01160325344491    3.06809006892066    1.75956587306875
O           0.35963586600980    0.68188340051430    1.61669871805628
O           1.95487091086143    2.20529272174869    0.56336282756420
H           2.26053480180716    1.45057513005225    0.00136071866955
H          -1.20924538251494    0.56555117879346    1.56675459029961
O          -0.49760937611291   -2.02527686296943   -1.18330703115063
H          -0.47478939767972   -2.66942092411371   -1.89242307730219
O           2.84485537993265    0.11997672916673   -0.80684507323505
H           3.78910982355752    0.07979812594260   -0.64769882874282
O          -2.79115038880477   -1.67653158445491    0.12029411140401
H          -2.80528091203054   -2.38389652124835    0.76743514954818
H          -1.98099194564657   -1.81981602514926   -0.42508319382020
O           0.41235726686045    0.18108597719945   -2.17852980066245
H          -0.19469730210825   -1.15713785602700   -1.59551705545811
H           0.09601791168671    0.89525230331478   -1.57784379190320
H           1.37006699002717    0.16710150059612   -2.05272421300479
O           1.51159433530733   -1.51343228545598    0.70020632681937
H           0.80821270371527   -1.86543654258707    0.13194476183240
H           2.42621338284664   -0.59284941898256   -0.23660242007232
H           1.10544740754026   -0.75853297116838    1.18079007237520
N          -2.12561126264806    0.73590772559724    1.04455484485847
H          -1.71867526600093    1.31360802085968    0.25959949006078
H          -2.78661956669340    1.27141115599077    1.59712994863861
H          -2.52216398877403   -0.17400159321629    0.68997624754513
