    26
        -50.45720840  Gyration_radius:  2.51179450168 Dipole_moment: 6.173
 S           0.73909320321801   -1.44893333522351    1.55588129450880
O           0.77262688107540    0.00977680551739    1.79800662072333
O           0.45593063534334   -2.19485564487985    2.73622107909887
O          -0.24990130255669   -1.70767109819686    0.47775853842610
O           2.13379374316659   -1.85830475611341    0.99750459435830
H           2.31630164147702   -1.34824616242200    0.16964942983743
H          -1.44645552711210   -0.92403858684696    1.13524819747959
O          -0.65511191122987    1.68980426370049   -1.56871170105474
H          -0.55975432770088    2.43121179795781   -2.16830502836953
O           2.58120547534040   -0.62671422555191   -1.30508908698828
H           3.18825819404944   -1.18542645755450   -1.79279007436971
O          -2.87232183774077    1.53657060590269   -0.10484602087896
H          -3.51761734880548    1.14063575285940   -0.69323350816466
H          -2.05515962284158    1.66849777551021   -0.64253331769706
O           1.48529098487782    1.65166239555522   -0.11775905924765
H           1.25672787420071    1.12161099819631    0.68078656659905
H           2.13019751551834    1.10958276938046   -0.59048218373400
H           0.15606068833888    1.71773662928243   -0.97176497122998
O           0.11626316797938   -0.96309509797670   -2.03173764518969
H          -0.27498145967329   -0.07524741276716   -2.01754809064868
H           1.67148523048401   -0.77253137768700   -1.70455628983000
H          -0.10055390012218   -1.35754722079050   -1.15811797696790
N          -1.79263936438362   -0.09315027054156    1.71074213959703
H          -2.33144419451901   -0.38611961675336    2.51878298942171
H          -2.30548902884236    0.59276319132274    1.09647662338429
H          -0.84180540953304    0.27202826807783    1.99041689092869
