    26
        -50.44364311  Gyration_radius:  2.49275810611 Dipole_moment: 5.419
 S           1.47814989964239   -0.97572934970348    1.51628402248252
O           2.15697753830836   -1.07594761759308    0.25480295220465
O           2.18548532302513   -1.30152834698305    2.69800816396092
O           0.89451487877531    0.47963529977071    1.62375694925960
O           0.17094484156137   -1.80617519885391    1.45219524111326
H          -0.08916881189645   -1.94238937327826    0.48816883659895
H           1.46287162341190    1.09234514924832    1.06890157641687
O          -0.47941602932240   -2.22381130097662   -1.01099545267446
H          -0.06723532293842   -3.05641930092843   -1.24997350364674
O          -0.05379236143103    2.05585565963169   -1.47808899053142
H          -0.52337233861319    2.63541171184632   -2.07856531406869
O           2.09096423636379    2.20093776429929    0.13171714454753
H           1.41420111753599    2.23484618445619   -0.57706269038134
H           2.08403017559805    3.05602300444540    0.56707780761348
O           1.02134921933259   -0.42071711982419   -2.09040990641080
H           0.66624030668407    0.47663258042739   -1.97691017259146
H           1.66812812629707   -0.55287545263493   -1.37295656250732
H           0.02923179908861   -1.51940449136912   -1.51786862851353
O          -1.51152134495826    1.51120250247550    0.59968971429189
H          -0.67961195311773    1.85757796851049   -0.71971627522447
H          -2.06200347674887    0.69483376213366    0.49463395938522
H          -0.81453232921494    1.25530134554803    1.21824426352419
N          -2.70920786821395   -0.89857250451978    0.48039886979662
H          -2.25574842241956   -1.39383496008661   -0.28022101491543
H          -3.70511579015833   -1.06803833926041    0.41792476151307
H          -2.37236304652652   -1.31515956678976    1.34096425888015
