    26
        -50.44707813  Gyration_radius:  2.51012632653 Dipole_moment: 4.738
 S           2.39142856537094   -0.37866841287860   -0.28470731416262
O           1.78752916984025   -1.08346265117696    0.81887867579094
O           3.67847017580450   -0.79015377792319   -0.69891122431060
O           1.37361400599106   -0.43513810266346   -1.47158363484584
O           2.42733865768575    1.13767858455208    0.03782399419503
H           1.49470498237137    1.47554763712221    0.10552043940461
H           0.60710066942597   -1.02723387515123   -1.15358604972900
O          -0.45609285615237   -1.86354808682634   -0.45134264478360
H           0.16311343918369   -2.23421457927745    0.18814574723577
O          -0.00777181079526    2.06597932539122   -0.00053790237012
H           0.00017850224723    3.01758438219706    0.11712276724865
O          -2.46516501190014   -0.26730627511192   -1.84080726981812
H          -2.09289935327503   -1.15304971815094   -1.88567307846756
H          -2.60647972630924   -0.08831842060987   -0.90208240927722
O          -1.66555565918243    0.04223755109340    0.90451517959257
H          -1.17823228160971    0.84477658887072    0.65721291390620
H          -0.97581642824104   -1.18466590534190    0.06484536475155
H          -1.27650393586851   -0.21577702924090    1.77780318950654
O          -0.47350982162256    1.44481378991644   -2.45392206894032
H           0.26257691180852    0.83679776220973   -2.59430294458705
H          -1.27949283047038    0.88604171711276   -2.38721489386723
H          -0.20634683822315    1.90203421143818   -0.97925195453698
N          -0.10455317803875   -0.65917558190972    2.96699391435627
H          -0.26051965642424   -1.50452841258862    3.50216781028706
H           0.17725604885592    0.06340940804252    3.61791814829680
H           0.68562825950672   -0.83166015907967    2.34497526511738
