    26
        -50.44707815  Gyration_radius:  2.51016349156 Dipole_moment: 4.741
 S          -0.84450946618447   -2.28422076203899    0.10936976565456
O           0.29937711639120   -2.01158465922609    0.94392170445983
O          -1.56993862425387   -3.47096308836723    0.35998756809331
O          -1.77483063715607   -1.02872998973342    0.18904583873111
O          -0.40606030599089   -2.26663246608776   -1.37775930778789
H          -0.09892527516303   -1.35053031387671   -1.61201121243605
H          -1.34927410205761   -0.40970746751714    0.87802809227923
O          -0.50630109442252    0.38845028062163    1.86626596850433
H          -0.05696736602176   -0.39003785468750    2.21515947517851
O           0.19012979675922    0.18027719079786   -2.04894715353313
H           0.39004257589895    0.22615436693209   -2.98563444962038
O          -1.26246482368853    2.79125751784662    0.39158552642668
H          -0.30349567279506    2.72723021116218    0.29425365302454
H          -1.46969791737514    2.36598404601960    1.22899088619194
O          -2.14357069187840    1.14611445190501   -1.55568129214288
H          -1.95068383589458    1.86501440274498   -0.91364483864683
H          -0.73004102210328    0.58542677335560   -1.93414758454241
H          -2.49925449061722    0.41353245811746   -1.03793393908142
O           1.25197422926936    1.40971998998153    0.19311963595879
H           1.99021407196972    0.81047487277791    0.46955875704093
H           0.97649744242655    1.06144905417312   -0.67026046757238
H           0.17208323949938    0.83049499772518    1.28162526772180
N           2.84475026134652   -0.63658614408938    0.86969277453937
H           3.48070993963110   -0.99677407506103    0.16893804201590
H           2.04951490049310   -1.27423016159107    0.91415121738575
H           3.32072176193182   -0.68158365191166    1.76232607217908
