    26
        -50.44707807  Gyration_radius:  2.51033530404 Dipole_moment: 4.737
 S           1.90810365499582    1.38724462972271    0.61448943817020
O           0.89385606042610    1.25062170218182    1.63028679686417
O           3.16492768518676    1.89937027731926    1.00873564328503
O           2.05986312488343   -0.01277018325995   -0.06737211133709
O           1.35313359271901    2.25270427890057   -0.54622675032293
H           0.59269893282310    1.77247402437523   -0.97008731917613
H           1.45974956429885   -0.64586257859074    0.45984869764249
O          -0.49329175925574    0.89978698501640   -1.79281401974563
H          -0.79582466523741    1.38557672474110   -2.56218135707235
O           0.44840549514270   -1.38929978397181    1.32528759311249
H           0.51014465642687   -0.76212284473381    2.05500144095342
O          -0.32545131547466   -2.88337952639050   -1.05846369922558
H          -1.11729642152002   -2.39328147981778   -0.80157220184570
H           0.16797387442861   -3.02872769174293   -0.24564306118547
O           1.04513539686299   -1.04559128034101   -2.47891971070562
H           1.78582248219591   -0.86297372625221   -1.88792582988047
H           0.58501792545249   -1.82955902658824   -2.10479006180743
H           0.09173511940442    0.15115045996511   -2.14132580726225
O          -1.76682816698373   -0.67704550376551    0.09316092846315
H          -0.42399424931356   -1.18023222984748    0.88623037686723
H          -2.05156461369396   -0.03624037509736    0.79226583420254
H          -1.45444691999580   -0.11181214587362   -0.63182328918503
N          -1.98387706533398    1.25630028920571    1.93664053510006
H          -0.97460457942152    1.40587187796857    1.93437126486062
H          -2.26162053520774    1.06925439695872    2.89225873016152
H          -2.41776729380929    2.12854272993907    1.66056792902463
