    26
        -50.44707816  Gyration_radius:  2.51019367142 Dipole_moment: 4.739
 S          -2.40162824764920   -0.33205766640368    0.25594518819337
O          -1.84220734325737    0.73614434085506    1.04670682788408
O          -3.80684497178435   -0.37267089678580    0.11073688400902
O          -1.69319362181973   -0.28467476800115   -1.13825917122930
O          -1.91403857330404   -1.69201363848596    0.81923088243367
H          -0.92747699220625   -1.75037816008083    0.71132057678509
H          -1.09862056944258    0.54304512169411   -1.12075918367608
O           0.63607568038450   -1.93599476657831    0.33787439214361
H           0.94168585805374   -2.80356831198824    0.60875934443428
O          -0.22819220085624    1.76496198789079   -0.84953596622243
H          -0.79785102363159    2.09824330351638   -0.14661862837671
O           1.87086026072105    0.47170619574257   -2.41150088419189
H           2.23519171877914    0.55544828549524   -1.52071380944283
H           1.24482643747786    1.19555466336771   -2.50752536894900
O           0.41872737728295   -1.79324775709013   -2.22235837339312
H           1.01308789302016   -1.04411228889385   -2.44992496971825
H           0.58719838473428   -1.95433777158591   -0.67272709159395
H          -0.48035859250933   -1.44663687372342   -2.27462455562190
O           1.73839431387897    0.60070509210446    0.45857053959262
H           0.56139677497367    1.38082530036700   -0.37378206587237
H           1.46271760901412    0.94104181754415    1.34661220288142
H           1.48097063533660   -0.33531055502772    0.47455525475181
N           0.45933550940871    1.32270662552036    2.70031839757336
H           0.54150929585579    0.72064783634013    3.51026088536034
H          -0.44830969117130    1.13521792432919    2.27369930024117
H           0.44674406871320    2.27875494987568    3.03373938200813
