    26
        -50.44707822  Gyration_radius:  2.51012937915 Dipole_moment: 4.739
 S          -2.34037479508262    0.64368671283784    0.22502083076520
O          -1.94449260876400    0.21701642941685   -1.09423670091490
O          -3.72433927561174    0.72060563476355    0.50075374376757
O          -1.61527509211126   -0.29697095089236    1.24349909789202
O          -1.68856924944621    2.01643487672919    0.53347313670289
H          -0.70089813434452    1.90547355836641    0.55831400208299
H          -1.13701970998302   -1.00034541953079    0.68171871919940
O           0.88094653445771    1.68190424763888    0.81444809672100
H           1.29370139889048    2.50508599430750    1.08174484006930
O          -0.44344699963926   -1.89050932842133   -0.34319973859614
H          -1.06735894170098   -1.68015486574560   -1.04759866851594
O           1.84222952375916   -1.99573712283717    1.46884218795295
H           2.17209427593524   -1.56217118878334    0.67107257323511
H           1.12772720043868   -2.57040363555838    1.17838998988463
O           1.63232958270366   -0.36570901693183   -0.89076603514790
H           0.37991874432819   -1.37407954362847   -0.57285216184943
H           1.29497580208853   -0.07856665959573   -1.77640816888866
H           1.50133567611620    0.41245075450048   -0.32511258517918
O           0.70132084807069    0.05403344892206    2.79928806349567
H           0.85663922054689    1.09513614254324    1.63865346013958
H          -0.23460617865876   -0.16833655375127    2.72291830751102
H           1.19525091931850   -0.73364025564924    2.48005709675758
N           0.22145426366527    0.52228797884437   -2.98921863758996
H          -0.64360318389733    0.50189490552381   -2.44868139400755
H           0.07421497157430   -0.03761917275426   -3.81998272597891
H           0.36584521720926    1.47823302960714   -3.29013733958665
