    26
        -50.46092001  Gyration_radius:  2.40604196064 Dipole_moment: 8.111
 S          -0.42143997547811    0.78932053260134    0.25451920000827
O           0.30307904984994    1.96274057329093   -0.23116148989901
O           0.45447633066658   -0.41408455646984   -0.24349209176362
O          -0.36285729059919    0.70769346935779    1.72620543535286
O          -1.75908915688754    0.65741801051406   -0.24890181064905
O          -2.17898524511221   -1.33297099766250    1.61253309340614
H          -2.89966190522201   -0.84417324429390    1.20413065849898
H          -1.51928778605471   -0.65199927399630    1.82842813818128
O           2.95271627847878   -0.51683740881237    0.75995129785533
H           2.09878555965053   -0.56236449927600    0.28298367820389
H           3.06624091778085   -1.36839808799098    1.18595614700907
O          -1.00975678422443   -2.37771481969261   -0.57677185293577
H          -0.13014040813493   -1.30061564395051   -0.39483201639314
H          -1.55805906409702   -2.24206108133634    0.22754541299816
O           0.08460530935128    0.80595489286813   -2.76730559389593
H           0.04715932218218    1.36835659483312   -1.98073330906974
H           0.84199666328653    0.23066630710599   -2.63739472027449
O          -2.15186615050311   -0.86843598388029   -2.41072885724800
H          -1.44934673229449   -0.44426418941327   -2.92640407383458
H          -1.52703743809188   -2.01107870809673   -1.34389141948193
H          -2.30062240990331   -0.23196378284419   -1.68974260165754
N           1.93620286153281    1.75722069088314    1.70963991156706
H           2.59824961553231    0.98217866878064    1.48626247423581
H           2.32862418359399    2.47621102042495    2.30707677919552
H           1.52701136519139    2.11832208001559    0.79736957211919
H           1.02900284950588    1.31087943704028    2.06875805847688
