    26
        -50.44707820  Gyration_radius:  2.51037307172 Dipole_moment: 4.738
 S           0.23377356966422    2.01579276325169    1.35125318892699
O           0.25946419687957    0.77531294729036    2.08606741524842
O           0.67917296087434    3.18015470354180    2.01693148208178
O           1.04013191210559    1.77871023774819    0.03151253589938
O          -1.19990405956982    2.26016697003146    0.81376272257308
H          -1.42602297634669    1.54254117939660    0.16388362031023
H           1.42914871081301    0.83964010192286    0.10746943120424
O           1.83651524924302   -0.60205477814386    0.38988630322171
H           1.72847129982158   -0.51677293084151    1.34420346695411
O          -1.70698831164912    0.50735522444905   -1.04742297679182
H          -2.55939122062123    0.68791333933354   -1.44774859884198
O           1.48325536529521   -1.14011429899307   -2.45715423551029
H           2.20409312697771   -1.03095783746783   -1.82979478899686
H           0.82904447711481   -1.69485415791577   -2.01266319614210
O           0.21175830196992    1.23384278985751   -2.60051765315908
H          -1.00951102440536    0.80721032608718   -1.71664653731852
H           0.71985053543152    1.75935385277426   -1.97051482943950
H           0.71587637222641    0.39967494055730   -2.72863413645536
O          -0.37113957714496   -1.82080329252914   -0.36803564634981
H           1.04017769756358   -1.12592677157088    0.09173536052265
H          -0.67961377602231   -2.01782864797996    0.55200263399855
H          -0.94575447660863   -1.09439788297459   -0.65928199361329
N          -1.08813748576602   -1.78288648064182    2.21408315670210
H          -0.66811616606693   -2.39402736570645    2.90356116777942
H          -2.07410789049416   -1.71176077703987    2.43315178502282
H          -0.68204679127051   -0.85528415443639    2.33891032217048
