    26
        -50.45335485  Gyration_radius:  2.50745991064 Dipole_moment: 8.529
 S           1.08749626278361    0.89227505331786    2.02618516525069
O           0.84415948698416    1.92493829629907    0.98643127357614
O           1.19403238002823    1.42504535906458    3.33843251235360
O           0.04102830364975   -0.14942474446277    1.88469585963085
O           2.43778921162220    0.20308532116117    1.64852889668366
H           2.31471798539481   -0.28701713282255    0.80371343429910
H          -1.20648888301661    0.51621282267711    1.22295839421204
O           2.12931069356726   -1.25214275752048   -0.56404220450784
H           2.87861332230288   -1.84886745504933   -0.59063466855378
O          -1.45327088856248    0.75303921282819   -1.95230882994686
H          -1.69115029590852    1.27982699540461   -2.71597676169970
O          -2.04694895050066   -1.79854225778629   -1.11353554711035
H          -2.19549074007564   -2.39753485254881   -1.84632253922977
H          -1.85114994504536   -0.92570667127544   -1.49486921554307
O           1.05816812304115    1.09094853210403   -1.51057345712475
H          -0.45349656627372    0.85764518239445   -1.84312801378181
H           1.08355138262149    1.50807520273774   -0.61888992158897
H           1.52676287068650    0.24956491246162   -1.40384987233114
O           0.09716983837116   -2.42025672980932    0.50257843177618
H          -0.71201557382581   -2.30843323555091   -0.02841697984761
H           1.34867124009037   -1.78851211697107   -0.21969124136189
H           0.04418417370433   -1.72717986932187    1.19039704493391
N          -1.59909994482168    1.35929334132591    0.69304323722723
H          -0.69604930241873    1.93215837402308    0.74806719859436
H          -2.39066877720736    1.78821456033125    1.15769920635517
H          -1.78982541718987    1.12329466698220   -0.30049141223092
