    26
        -50.44496062  Gyration_radius:  2.50282563793 Dipole_moment: 6.379
 S           1.34033560608492    1.22457345560075    1.57719586314855
O           2.07034456327249    1.27571030383598    0.34292235484517
O           1.76595963542279    2.03313285668060    2.65765215711272
O          -0.16781294086470    1.51861648654308    1.25528667014056
O           1.24788272745917   -0.24797845356977    2.06213387544461
H           1.26979468300293   -0.87816649000668    1.28552743806066
H          -0.26018754478309    1.96410099391866    0.35927080019025
O           1.21968606842439   -2.00769961263663    0.15540488742332
H           1.37012806592640   -2.86550380512579    0.55540501254954
O          -0.56919306390751    0.21189605565455   -2.39837251755563
H          -0.67430881622051    0.19790397640603   -3.35077770494290
O          -0.66786370066925    2.51170769359916   -1.05498296369003
H          -1.57882195923546    2.81212129673776   -1.04054812901908
H          -0.64160902294704    1.69721705497207   -1.61075891398239
O           1.92024811402210   -0.22909028452982   -1.85114801221360
H           1.92142895001738   -1.05314085717087   -1.34446259339307
H           0.40897853179083    0.03490048126479   -2.22975580982220
H           2.10837949454455    0.45725071521715   -1.18173939892638
O          -1.22501239347690   -1.83613267172050   -0.62322076748840
H          -1.64468123342684   -1.44828998802530    0.18360780673658
H          -1.17931498875706   -1.12406445872791   -1.28184608910925
H           0.25927261333845   -2.00465711601517   -0.16633607890831
N          -2.05508686193009   -0.69933641880224    1.68505384033047
H          -1.75516639417257   -1.26698390888463    2.46814079670388
H          -3.00973548016444   -0.41308067969349    1.86259262144896
H          -1.47364466274828    0.13499337447039    1.68375483490453
