    26
        -50.45335466  Gyration_radius:  2.50767985489 Dipole_moment: 8.514
 S          -1.14777608906983    0.48054882894516    2.12936311906811
O          -2.00941185756691    0.69061566648201    0.93817633366656
O          -1.87973143448732    0.22090286452128    3.31852072436639
O          -0.15765413412721   -0.57208284386619    1.79288016133626
O          -0.33032807660588    1.79884968061453    2.31520280753543
H           0.28189700767276    1.89819089781245    1.55075313679253
H          -0.77903984460907   -1.46514149279528    0.67960367265199
O           1.44451039915122    2.05359649320945    0.34216043518310
H           2.07812224866649    2.70579210869582    0.64451506946204
O          -0.50678348511391   -0.67880092567643   -2.40234203752435
H          -0.91314470013547   -0.60651124378919   -3.26658256314756
O           1.84414916556251   -1.76327398130974   -1.47259914035814
H           2.54392547197039   -1.72581732189595   -2.12589665230565
H           1.05340693930429   -1.37078820049688   -1.88034103839936
O           2.30868526286446   -0.32268684718282    0.83008421101455
H           2.24098694077027   -0.90502608370162    0.05184164931859
H           1.87353845695586    1.15225177359391    0.48083049891584
H           1.51043411518270   -0.51765839567279    1.36016342057070
O          -0.76816210837805    1.58688383325876   -1.21331681387125
H          -1.32296360625284    1.37477262057445   -0.42776523798373
H           0.06949688112284    1.90648098501502   -0.84579653526610
H          -0.57079881479267    0.24096766556718   -1.98708651824614
N          -1.54556462049110   -1.58338676281098   -0.05964809802834
H          -1.16151897179190   -1.47617321826526   -1.01895143001778
H          -2.07042182145411   -0.69029775170060    0.20731044938133
H          -2.08585333435373   -2.43220834908043    0.05892039591004
