    26
        -50.45282431  Gyration_radius:  2.42236038668 Dipole_moment: 8.178
 S          -0.08352032753262    1.39055320589249    1.44160773506378
O           1.21911618939316    1.67468626974236    0.88375002847728
O          -0.52581318973979    2.16734027256074    2.54676206467436
O          -1.10777699691136    1.34855448680216    0.34638198978445
O          -0.04565441677308   -0.12269220418378    1.95165058593554
H           0.48750299594084   -0.65508651034037    1.31720455515464
H          -0.90452486850542    0.86671041998615   -1.18360877197978
O           1.27029571646277   -1.72641578920756    0.31542236696406
H           1.68864558032610   -2.42945457306049    0.81507214076836
O          -0.84586012878457    0.44974856946171   -2.08139026182673
H          -1.38544574125535    0.98638258052545   -2.66346608991156
O           1.73841426626744    1.56228983921034   -1.83902904092345
H           0.95331328642143    1.09231530903194   -2.15192992393320
H           1.51388355933523    1.87157965528143   -0.94523338638468
O           3.10837236812957    0.00409383044469   -0.13155199796120
H           2.91775279789086    0.42524930414482   -0.99347561976844
H           2.74737379574963    0.65134105991345    0.49842215249196
H           2.02189077053446   -1.10052537844746    0.04760497589651
O          -1.18490067158105   -1.95890617932069   -0.89168321183446
H          -2.05342600240827   -1.32492591473807    0.23798333540945
H          -1.10335620856342   -1.22328968994624   -1.53024531639461
H          -0.28748370888747   -2.05159611045028   -0.52525324837426
N          -2.48258145772344   -0.66267762240561    0.97227999870462
H          -3.49507188711597   -0.62571918098798    0.92171955113122
H          -2.00173581338674    0.30788784265009    0.73776607212413
H          -2.15940989745706   -0.91744350234577    1.90323935685196
