    26
        -50.45282444  Gyration_radius:  2.42236639939 Dipole_moment: 8.178
 S          -0.19557401085463    1.07541679491182    1.68030891519234
O           1.14875762109052    1.44086782585414    1.29591390326651
O          -0.72398474739607    1.62259489342586    2.88100460320798
O          -1.12782605645872    1.27387312823128    0.52188159790442
O          -0.20349402141997   -0.50987222947275    1.87603845718178
H           0.37708937520455   -0.91458649698498    1.19103276579144
H          -0.80209970461694    1.10313593745594   -1.05257461879339
O           1.23482174824051   -1.77926525566116    0.05899055508659
H           1.60849092740687   -2.57619700224354    0.43873122114156
O          -0.67195547215608    0.87274537686830   -2.00823009785372
H          -1.16027649764076    1.52550247580446   -2.51159457539820
O           1.88801951013267    1.86440919827467   -1.34469514293843
H           1.59266034699553    1.99387448140216   -0.42773016845074
H           1.12951622217095    1.48124648809307   -1.80624521919377
O           3.10858970321118   -0.03029373132960    0.11862984868050
H           2.99112187538719    0.55846435845267   -0.65349640749464
H           2.69870300708543    0.48474777692264    0.83481251831138
H           2.00776260307269   -1.12728638053642   -0.01646801873161
O          -1.11650601210425   -1.71769469245170   -1.35732959157731
H          -0.25191759663441   -1.89983809261537   -0.94803784464770
H          -2.07102442024813   -1.30511519389423   -0.19507493141304
H          -0.98076696162503   -0.87103143304050   -1.82665076031997
N          -2.55570258180521   -0.79453535057207    0.62128061151879
H          -3.56067695410449   -0.72837398222201    0.50010196575454
H          -2.05419001522483    0.19366128741746    0.62486479360579
H          -2.30953787766147   -1.23645020208231    1.50453562017463
