    26
        -50.45282442  Gyration_radius:  2.42236123545 Dipole_moment: 8.177
 S           1.77052049874089    0.82698006853525    0.44623123408207
O           1.91386927613522   -0.45561640051029    1.09663260687548
O           2.83872469691098    1.75852379480706    0.55350773319289
O           1.34582296276011    0.63016773173844   -0.97898208509410
O           0.49811786620703    1.53597297257173    1.10203701881811
H          -0.18671197988924    0.85096496554957    1.28073102385926
H           0.41285117034667   -0.54452599553598   -1.58191706191384
O          -1.48917002150826   -0.14197946715880    1.56751385745948
H          -1.98209817434024    0.14261143285743    2.33885332452182
O          -0.26414274945089   -1.16629787208046   -1.95400273964180
H           0.04010306549807   -1.40235731811008   -2.83129187109845
O           0.96577492945470   -2.81298584249154   -0.01715260402554
H           1.53349948860949   -2.06881769686562    0.24533054377409
H           0.39097169915141   -2.46379428219090   -0.71208601305689
O           0.08128871469604   -1.99630450872074    2.38515575279384
H           0.20085987561290   -2.63051140437073    1.65022854403657
H           0.88008266124256   -1.44581744010248    2.31439297350306
H          -0.95141690447443   -0.94613774497477    1.87159213138458
O          -2.18381680179769    0.49467227751915   -1.01159145646692
H          -1.25846163401173    1.73641172143004   -1.19626471213950
H          -1.68556583600869   -0.20785658286218   -1.47385513275793
H          -2.12195408319155    0.24627704614879   -0.07208166459603
N          -0.41475819940772    2.40383906624222   -1.26470528161880
H           0.44926866270404    1.71067184570233   -1.23299438485846
H          -0.34946563400125    2.97126218979038   -0.42220954438801
H          -0.43419352996910    2.97464746303166   -2.10307219281236
