    26
        -50.44364334  Gyration_radius:  2.49283207493 Dipole_moment: 5.414
 S          -0.78664414301227    1.57850461259137    1.52359150594026
O           0.62987931589007    1.81121474391756    1.48509475810567
O          -1.61005810925297    2.50441093694553    2.20746225039772
O          -1.27879522526180    1.41568615554383    0.03980982318004
O          -1.04853578621192    0.15245688599275    2.07112715090978
H          -0.21783250383776   -0.40613425091970    1.95426418476441
H          -0.65996697217982    1.92911164001716   -0.55980965282459
O           1.08793477851724   -1.27810481297942    1.84124023470156
H           1.56342546271587   -1.16850144473876    2.66712610873774
O           1.08102558249436    0.01181782107455   -2.29181075178813
H           1.40816638356280   -0.46026429493927   -3.05798843872431
O           0.26736009136890    2.50366519554034   -1.70551123912369
H          -0.26064492014552    2.82791002971666   -2.43825950446939
H           0.70140185859740    1.67825496047942   -2.00843839982491
O           2.34597078629437    0.22548134450514    0.16100586021373
H           1.63308170699971   -0.78791668547215    1.15235767228298
H           1.99938466254509    0.14809758702450   -0.74353181497715
H           1.91044890281552    1.00303655234708    0.55648443862968
O          -1.26742791515631   -0.85981690581901   -1.60958003655077
H          -1.24146977764192   -1.59573684372265   -0.94778942362028
H          -1.57769090179867   -0.09434960158896   -1.10797705736636
H           0.19300665677857   -0.39307590145194   -2.06078755973699
N          -1.22889432532511   -2.57745511968475    0.46527515686251
H          -1.85767433143405   -2.10557523726905    1.10515865821131
H          -0.29923193451509   -2.50684585791080    0.86531455916517
H          -1.48621934159752   -3.55587148929119    0.43617150673947
