    26
        -50.45335466  Gyration_radius:  2.50771435852 Dipole_moment: 8.509
 S          -0.33290076530467   -2.17055395141662   -1.12136116928534
O           0.74316738784243   -2.19794170934118   -0.09809428641191
O          -0.90248896196172   -3.44620079445623   -1.37751540770112
O          -1.32227188921366   -1.14365643566328   -0.71161973633657
O           0.32550693230132   -1.63680423615257   -2.43360323324059
H           0.58992962574743   -0.69909469565108   -2.29273231198989
H          -1.23538494709899   -0.99656579253383    0.83675802339191
O           0.94048381184630    0.94277620916338   -2.15814922260067
H           1.07831354723396    1.27406972260655   -3.04667214223943
O           0.88328973447083    0.97554580942533    2.18137470280733
H           1.52663497179684    1.13589230244679    2.87251862001413
O          -1.25092594662607    2.39263210210261    1.17928122056126
H          -0.46236227326166    1.96969474331867    1.55987715628391
H          -1.12238681005939    3.33934667297316    1.24959298151781
O           2.13412299236009    0.03403218117392    0.14050247019814
H           1.90862375771337    0.50222326308172   -0.67730833840900
H           1.41140897229489    0.66656048766006    1.37637675524446
H           1.75125117070938   -0.86637691802488    0.02867157873631
O          -1.47047665188754    1.42323136915297   -1.39095082375628
H          -1.50123254684528    1.82624368616612   -0.50440202793969
H           0.01558873873146    1.23464581013215   -1.88430195228167
H          -1.62509577752022    0.46974577129758   -1.23895634264258
N          -0.68301929388062   -1.19915159969209    1.73186521063587
H          -0.23368786944258   -0.33720233038199    2.09849773188490
H           0.05883066916704   -1.80046176116711    1.24900521116427
H          -1.22491857907362   -1.69262990632099    2.43134530235250
