    26
        -50.45807516  Gyration_radius:  2.42059194471 Dipole_moment: 7.666
 S           1.03189527617293    1.91482118294129    0.32344911743554
O           1.79466100007059    0.86015126452733    0.97547896849600
O           1.54236958737264    3.23421162580788    0.46002978233856
O           0.97321033586315    1.53463781184757   -1.22263553158886
O          -0.40677604051703    1.81787998364038    0.71586544353709
H          -1.09309878953467    0.59240885692600    1.52144983789879
H           1.66797320468746    0.83160853299387   -1.34322826671363
O           0.55821126540460   -2.27157702341541   -0.64399448498588
H           0.72789454967250   -3.21209511604535   -0.71054083411216
O          -1.58168460986610   -0.18641676318736    1.89567293074195
H          -2.09197487222843    0.14865891296184    2.63359314813563
O           2.59786472749562   -0.45597774995312   -1.17586386169961
H           1.95366778141737   -1.18601950354018   -1.14911310998305
H           2.69828585085620   -0.16315198672122   -0.25335362301274
O           0.84878097430957   -1.46302140566609    1.79372591859149
H           1.29927518738466   -0.60721866863840    1.61738714032842
H          -0.04568083134804   -1.20853618829999    2.06907263247096
H           0.70002611783887   -2.02750935765283    0.32347982244564
O          -1.95475551713055   -1.27298223087934   -0.59886882361802
H          -1.85781140531519    0.14729993421730   -1.19658911231353
H          -1.08366032683032   -1.70247866624860   -0.73705294115164
H          -1.98331413033307   -1.06137786512756    0.35192850306435
N          -1.66092108569819    1.18790514133006   -1.40175881107280
H          -0.94399659487136    1.28208877668302   -2.12058573708684
H          -1.18742805879218    1.56597930028376   -0.48814131406648
H          -2.50301357608767    1.70071121121607   -1.63940676407620
