    26
        -50.45282454  Gyration_radius:  2.42220405582 Dipole_moment: 8.174
 S           0.59593811374865   -0.05294985358224    1.91210291644180
O           1.85792607703015    0.20831754184004    1.25828131189477
O           0.58805462726599   -0.19699511893583    3.32613689380948
O          -0.43173638723043    0.93692888867913    1.44889383940762
O           0.05017699947532   -1.43424645451931    1.32427720548391
H           0.27248334428654   -1.47879048576990    0.36568026531175
H          -0.55593054985016    1.63009236139862   -0.00621062207400
O           0.47619409675781   -1.69036860591955   -1.27032277566067
H           0.60667093568296   -2.61459929458007   -1.48874376892531
O          -0.73853568060682    1.96171589858388   -0.92274902485708
H          -1.05444529024298    2.86104376955895   -0.82623398090453
O           2.08561212578963    1.90881132426853   -0.92200307608315
H           1.15685081739946    2.00316567496044   -1.17427390249471
H           2.07193279801208    1.54693284593937   -0.01993821333115
O           2.82273887075741   -0.66685727061602   -1.12852225177675
H           1.39619099750512   -1.26725329802890   -1.32363711516333
H           2.75824007903732    0.26548841474982   -1.41691187021838
H           2.80381825977213   -0.58469166045823   -0.15953231717803
O          -1.94469541633886   -0.40473201281205   -1.44745908389894
H          -2.39287704542344   -0.55327327047957    0.03948943314485
H          -1.61674377832509    0.51577376109527   -1.47548843364833
H          -1.13929067749778   -0.94304921898287   -1.54541999180422
N          -2.45862715155334   -0.51431412844101    1.11460153851537
H          -2.19983044009550   -1.41470775372815    1.51258121550585
H          -3.36839563748970   -0.20555363650157    1.44022672759008
H          -1.64172009806354    0.18411157194422    1.38517509081286
