    26
        -50.45282430  Gyration_radius:  2.42238132123 Dipole_moment: 8.178
 S          -1.75992498771186    0.36353017428951    0.88857177097840
O          -1.35595927703145   -0.83163677573429    1.59359993001625
O          -3.01466350053941    0.94565079273235    1.21580694789371
O          -0.65210370992985    1.37433766920239    0.92445671652332
O          -1.84095962676990   -0.02080537314927   -0.65971680875864
H          -1.10944640583235   -0.64699988118820   -0.86693141042608
H           0.94104436369451    1.09839076282035    0.93715545149474
O           0.11118974852514   -1.62924696750504   -1.42341003557122
H          -0.19625156203989   -2.20336947838709   -2.12682889944842
O           1.91492825702635    0.96581700888637    0.80564701864573
H           2.35208638899915    1.62251980455755    1.34931518509515
O           1.27008447375070   -1.31026714580238    2.34822409587881
H           1.73196303774028   -0.64377095091037    1.82132681666866
H           0.33631901700904   -1.03991444857664    2.34377877664039
O           1.43977294427518    0.73532775707138   -1.85003655531284
H           1.85060600908113    0.83255090882005   -0.96839810620813
H           1.07406004575539   -0.16712844976169   -1.83975833521924
H           0.21884057569154    1.70106232559234   -1.75694986368901
O          -0.00804418157718   -3.02647198307193    0.72296505848158
H           0.71461615917869   -2.72993355254691    1.31156552783121
H          -0.77388108098265   -2.54243779654783    1.07699251796446
H           0.16647383461384   -2.21712133415871   -0.59899821710070
N          -0.64856279292278    2.25280231792234   -1.43257068846770
H          -0.56645654623710    3.24879067275375   -1.60670171848195
H          -0.70728223273728    2.00539459151977   -0.35391863124897
H          -1.48844895095034    1.86292934126379   -1.85518655420624
