    26
        -50.44867322  Gyration_radius:  2.53131796015 Dipole_moment: 6.586
 S           1.29075991826280    0.95873383300567    2.03560810438352
O          -0.08595815160694    0.52374977583981    1.93765962444313
O           1.83995870893055    1.08344210225363    3.33125076436653
O           2.13260932212913   -0.01948733003021    1.14998243876569
O           1.45962010287643    2.28627844847783    1.27227539367166
H           0.97445703201677    2.24938054555791    0.39141698791315
H           1.65635538717371   -0.91741345275756    1.23572175782171
O           0.16330146920010    2.20120252856006   -0.95841618907502
H           0.01814224782312    3.09607820836283   -1.27062752340325
O           0.17007786763088   -2.13107482187736   -1.35372469461236
H           0.61434659664289   -2.86138432763251   -1.78724787859839
O           0.58065316864490   -2.00321290369083    1.30823327824996
H          -0.06207333216567   -1.37293149394975    1.66702317840051
H           0.33695164472371   -2.15147924210365    0.36693927649753
O           1.69392352387895    0.00890497674711   -1.61937514484626
H           2.16491652523527    0.01764823481173   -0.77438850124166
H           0.71896347318166   -1.32596434664838   -1.54174247470671
H           1.14893479290285    0.81134904448870   -1.61715949682064
O          -1.94589935615482    1.34082655116745    0.16192937787637
H          -2.24096519920275    0.49024819876347   -0.25381348614655
H          -1.47013484025972    1.08013801047751    0.96941348164111
H          -0.73423735950764    1.87407442910266   -0.59096778665359
N          -2.56874517656324   -1.05973429715070   -0.91071968279983
H          -3.13060191193972   -1.02128360754771   -1.75156437823959
H          -3.04307045057692   -1.66157888131634   -0.24931662018477
H          -1.68228597323601   -1.49651017286574   -1.14838982670445
