    26
        -50.45282437  Gyration_radius:  2.4223759565 Dipole_moment: 8.176
 S           1.44511153526673    0.09257198661838    1.38584468331557
O           2.22704165390686    0.27828385166833    0.18474891492873
O           2.12548640920533    0.06444620617784    2.63350586240947
O           0.29726773203898    1.05832329488441    1.40045084089805
O           0.71759805839577   -1.32270703916224    1.24714240880552
H           0.45130934956752   -1.44911569399580    0.30734355561685
H          -0.52787344919735    1.63449233307546    0.13510170998619
O          -0.15450888299165   -1.79645676547183   -1.20166936042915
H          -0.12364979705463   -2.73742092015567   -1.38212978230840
O          -1.13680725920823    1.89449108380412   -0.60311641141606
H          -1.38652520421197    2.80470104464945   -0.43850561315935
O           1.33606586798644    1.79054139158426   -1.96328286928965
H           0.39906875147732    1.88068298600666   -1.74194472952920
H           1.76824293579757    1.50388738286778   -1.14099067319619
O           1.94343197013683   -0.80582762973163   -2.29302189310785
H           0.61503560455572   -1.39509224890874   -1.72606471593701
H           1.72522769819577    0.10098545893440   -2.58769205133454
H           2.39234996706405   -0.64470831572874   -1.44535939329063
O          -2.39034880675251   -0.48562390899387   -0.29493123534979
H          -1.71851294499087   -1.04396340940589   -0.72512836416650
H          -2.06420197809214   -0.50662219407122    1.22983073763945
H          -2.13842056885564    0.42381570138611   -0.54977642674133
N          -1.60572321874371   -0.38078795003609    2.19734619600720
H          -0.77606893671015    0.32276263855609    1.98587156935446
H          -1.16698911292297   -1.25088032128136    2.49137776016802
H          -2.25360739391890   -0.03077897317160    2.89504929997623
