    26
        -50.45061082  Gyration_radius:  2.47901788886 Dipole_moment: 4.875
 S           0.85441992240218    0.93163754822943    2.04052376362679
O           1.82676472230110    1.51130017567274    0.98813713268079
O           0.63167688278415    1.90559776993557    3.04385568556774
O          -0.45098323912476    0.69938782490439    1.20864479137241
O           1.28467921153024   -0.37737288955177    2.44991581735720
H           1.03723721501390   -1.52473794268992    1.33651276249577
H          -0.51996216321430    1.45635185004413    0.54476341796807
O           1.01552212492781   -2.15213317951533    0.57124333144349
H           1.38325882046765   -2.97671099297689    0.89333656986855
O           0.21175947367552    0.48927982376364   -2.34411914518611
H           0.07769288191783    0.48110834936898   -3.29239628783795
O          -0.31735946036501    2.47653360353324   -0.61557533558175
H           0.53924286025048    2.85324750610381   -0.39090506976064
H          -0.16214100369050    1.84513111534070   -1.35275889761293
O           2.31954847629954   -0.21499627117927   -0.78565631930786
H           1.96156186783379   -1.04141341850645   -0.40373753166300
H           1.68682333864500    0.05218169849800   -1.48084240672893
H           2.10645652381621    0.79809273397584    0.29888292928997
O          -0.96188033966526   -1.57081984202577   -1.33538280835654
H          -1.74981307690567   -1.28412289238226   -0.81572329225643
H          -0.29862011120756   -0.30333227093700   -1.98048852175420
H          -0.33022642644592   -1.89786274034909   -0.67657948334334
N          -2.91558038092379   -0.66741171929753    0.31696378380110
H          -3.56492886766067    0.03331921514058   -0.01688543686549
H          -2.23352193219241   -0.20048050501471    0.90709499815772
H          -3.43162732047064   -1.32177454008698    0.89117557263193
