    26
        -50.44364321  Gyration_radius:  2.49272973952 Dipole_moment: 5.405
 S           1.51373322365470   -0.29703345673217    1.74675328852414
O           2.35007997880749   -0.10659427280806    0.59503230582140
O           2.11225218037882   -0.30449732954381    3.02920762841909
O           0.37878086090199    0.78902939104185    1.69038592370487
O           0.68259722491762   -1.59137798267613    1.55779504732489
H           0.63737043135892   -1.81645943151082    0.57625403346424
H           0.72510725144291    1.58549852761422    1.18878628714736
O           0.60853478271907   -2.22350127217694   -0.94362310486440
H           1.35088941868635   -2.81488173780443   -1.08287674182894
O          -0.66645759531715    1.86439106495633   -1.58365781487168
H          -1.23665439405175    2.20521224290439   -2.27333884507140
O           0.97985273859348    2.86207110064582    0.28935188467397
H           0.56465897853776    3.63691742335710    0.67401176634071
H           0.45757733855279    2.62179334894270   -0.50498279664261
O           1.39025992997685    0.04002667597651   -1.90940204301145
H           1.92605684538247    0.17876569484607   -1.10670508749396
H           0.85530290284291   -1.37019358142318   -1.41573190004502
H           0.69188418831180    0.71548098926967   -1.89278329168456
O          -2.06671653193377    0.76401804501900    0.30564194030375
H          -1.42223346132817    0.81268287088315    1.02406302488757
H          -1.26266772137014    1.42510930561998   -0.90728331580976
H          -2.21873292961623   -0.20556791963698    0.17513381328913
N          -2.15082951389324   -1.92527062866707    0.17324841381584
H          -1.43985572664341   -2.19205774795312   -0.49954652731491
H          -2.97280464277242   -2.49109387397316    0.00478220307213
H          -1.78798573814376   -2.16246745612804    1.08948392787229
