    26
        -50.45282435  Gyration_radius:  2.42241195016 Dipole_moment: 8.179
 S          -0.09024348470327   -0.16362389063009   -1.99600761801203
O          -0.05466299219558   -1.55956875692708   -1.62345954217115
O          -0.12916366437987    0.16245859811266   -3.37891694740685
O          -1.16978884326264    0.54050945980309   -1.22838872030032
O           1.24476467986220    0.49996987772095   -1.42254911637172
H           1.44629329602459    0.09620835699710   -0.54701682438615
H          -1.68708211161624    0.22321233967358    0.27023459046495
O           1.89279923156675   -0.39868181019922    0.97610201181102
H           2.84580508174294   -0.39392237940008    1.07943800727814
O          -1.92753250283486    0.14378577266676    1.22896974902275
H          -2.87207705480942    0.29485553166702    1.28323566480017
O          -1.40420985767865   -2.55602538443812    0.58631257661293
H          -1.16672170112040   -2.28746613627546   -0.31728343127547
H          -1.61978290978787   -1.73456349064023    1.04883968069513
O           1.26352089412785   -2.81529027214096    0.39568607761227
H           1.63849687782271   -1.37297083386195    0.85584061482926
H           0.37774522018370   -2.99082136268549    0.77147130446410
H           1.05671663910856   -2.61102381899390   -0.53255491810865
O           0.25329775757411    1.63853739597455    1.81321943560202
H          -0.58921444947719    1.14378533530907    1.84374669110474
H           0.92588374040092    0.94761980041891    1.67730591889156
H           0.13918377553872    2.40762548319076    0.46136768695527
N          -0.04325805504988    2.68891146722476   -0.56313674362399
H          -0.53698073774017    3.57131855019899   -0.64471323998427
H          -0.62478179496312    1.83004810281489   -0.95339664287856
H           0.83099297558587    2.69511207452919   -1.08434625567301
