    26
        -50.45282455  Gyration_radius:  2.42228242034 Dipole_moment: 8.177
 S           1.23595903437590   -0.85297147213983   -1.32679218719632
O           0.54301116947255   -2.02163838920025   -0.83430372118724
O           2.25594219189389   -1.03594881248712   -2.29969079813583
O           0.24173395938528    0.18633033316279   -1.75303448291451
O           1.94417438972752   -0.17269885557527   -0.06697503168097
H           1.34889755564618   -0.25700780686699    0.71319643737466
H          -1.21666953043875    0.48046815783607   -1.12036927482748
O          -2.04905765885140    0.77373732084959   -0.66821357377130
H          -2.65579453180016    1.03340743600241   -1.36274207021339
O           0.44678736584572   -0.22121161239695    2.10937727466222
H           1.00486034399152   -0.28029767902990    2.88654285933540
O          -2.17053142087807   -2.01795467901034   -0.25594472456135
H          -1.31362415253874   -2.11462863890399   -0.70462424225530
H          -2.35128184414447   -1.06795231422230   -0.25108629198280
O          -0.51149682807129    2.14227076946105    1.09059211705363
H          -0.20931104813103    1.38225061151583    1.61894875212709
H           0.58427611930091    2.38555485841202    0.00760691412499
H          -1.25093000442905    1.78205156433339    0.56230264305621
O          -0.37715796211018   -2.60658699527311    1.65645118815061
H           0.18376426531141   -2.72520730042856    0.87068710146120
H           0.03685535956103   -1.14212870198157    1.99992845521419
H          -1.27134342517797   -2.54342989080664    1.26518120701976
N           1.25049885191554    2.29993765833549   -0.83546101149093
H           0.84493062180339    1.42454193645090   -1.38063709783824
H           2.17906708622841    2.02739807489961   -0.51997739715338
H           1.27644010202006    3.14171440709892   -1.40096303445581
