    26
        -50.45282444  Gyration_radius:  2.4223752777 Dipole_moment: 8.179
 S          -1.23368771282053   -1.44472248408226   -0.63943523572304
O           0.04413307904997   -2.08743464992954   -0.84637760437502
O          -2.40991195099440   -2.15188375215640   -1.00921816987272
O          -1.31850065299590   -0.92055897838575    0.76361607881702
O          -1.22545497099672   -0.11063483531544   -1.51800041153338
H          -0.32232058544477    0.28119992295971   -1.48738294458641
H          -0.11626954204498   -0.35151274642921    1.68247167156595
O           0.56946990046443    0.12816296187579    2.21450779742331
H           0.41991496743074   -0.11519901431591    3.12901075646268
O           1.10440996422709    1.13507810399269   -1.47856653154168
H           1.24629897259646    1.58528069894014   -2.31291405104038
O           2.15777599348413   -1.82293810473028    0.93081458161807
H           1.85056139011228   -1.07735457048261    1.46454943380042
H           1.36996038033546   -2.14493769194166    0.46116476944219
O           2.43367522327151   -1.05230590098670   -1.62856871434215
H           1.64083034667625   -1.60905568970356   -1.71513769393411
H           1.71716153554775    0.32744954238448   -1.49918381666867
H           2.74498287811760   -1.27323946272754   -0.72810547389273
O           0.04022924266573    2.34111889261331    0.74716748926576
H           0.35652129405256    1.70694248993269    1.42047732511662
H           0.51007585743509    2.07585293326147   -0.06340584078106
H          -1.44495768669848    1.90706154787365    0.55275126904017
N          -2.35684420606154    1.34583579807157    0.42787570883515
H          -3.09936250815123    1.66392128123300    1.04149361168827
H          -2.03622451387644    0.30643874529153    0.63940075874857
H          -2.64246670530888    1.35743497278410   -0.54900474354294
