    26
        -50.44867326  Gyration_radius:  2.53122874237 Dipole_moment: 6.582
 S           0.85926266907536    1.03569210249830   -2.21716489445442
O          -0.26262605925429    0.15153359674788   -1.98543640183066
O           0.88444676689922    1.74343647398253   -3.43955110221935
O           0.92232528820693    2.00830964329617   -0.99245580876882
O           2.17129453085527    0.24578206433059   -2.04974479219349
H           2.12178833360549   -0.35058793365440   -1.24062689661940
H          -0.05167901338994    2.14207507801573   -0.72086528450026
O           2.01096844292102   -1.32309614117401   -0.00616089040916
H           2.67657791158987   -2.00873729050827   -0.08491723967707
O          -1.04671387561389    0.94612140031271    2.10198408899189
H          -1.18093097256196    1.58620705439830    2.80267677829378
O          -1.52234724337943    1.89745832269343   -0.37585446303207
H          -1.55804855346948    1.13518588470090   -0.97313334359762
H          -1.48939988132634    1.53893370837397    0.53945824421122
O           1.52867037430086    0.91904585441874    1.51919518528379
H          -0.06555797717666    0.89361100962417    1.96299888134548
H           1.78785335664395    0.04765883637039    1.18096693919823
H           1.56029482258558    1.50996058704754    0.75386812773532
O          -0.24160488614015   -2.23912121662381   -0.73499338029265
H           1.11475551629788   -1.76276512861542   -0.23202004443017
H          -0.91713688975649   -2.11755421582569   -0.01922715752409
H          -0.39332997800132   -1.50711679209383   -1.35750116367002
N          -2.05271608141458   -1.70253231923712    1.19717315698496
H          -2.98423691323772   -1.57712707326608    0.82148578170785
H          -1.76404812257427   -0.82125024185612    1.61313210576281
H          -2.10786154544357   -2.39112328391219    1.93671358356631
