    26
        -50.46919484  Gyration_radius:  2.46726905638 Dipole_moment: 3.371
 S           0.32548788963818   -2.36463001712569    0.24495759669285
O           0.85163216146628   -1.54054645163657   -0.83594424534923
O           0.19273709455155   -3.75149964760778   -0.05672187282847
O           1.39598577172360   -2.26525998328031    1.43720387379505
O          -0.87624236295542   -1.73298871896844    0.81004065981221
H          -0.24583503556241   -0.52991517499530    1.71785449840920
H           1.82572351723042   -3.10733849836176    1.34198719212404
O           0.13573717058230    0.24658236044864    2.19280185328082
H           0.41106940841740   -0.08241281201470    3.04946098873052
O           0.79088544768442    2.30341033631932   -1.15369678632903
H           1.37516878066298    3.00012554173768   -1.45272370551005
O          -0.32677372797367    0.18770886303087   -2.52334043221243
H           0.11261394032336    1.01309365415350   -2.24692780440725
H           0.19295331171085   -0.52918700594740   -2.10940395172111
O           2.06632177438358    0.53652889438980    0.25635070699335
H           1.77345112588870   -0.28412221503005   -0.19205437153066
H           1.35738935702501    1.66406001537962   -0.62769595923459
H           1.57779201189561    0.53147608890127    1.09688345707861
O          -1.21277969475780    2.16660291195236    0.71144374750691
H          -0.75115161471851    1.66990875140359    1.40655748006098
H          -0.52519286168257    2.41436385850092    0.06488856681289
H          -1.93286694111774    0.97842642602393   -0.08068782210230
N          -2.12625551862679    0.08934980308735   -0.63231717609698
H          -1.73947166084377   -0.71198679644595   -0.06923377503459
H          -1.53574114373484    0.13609603881404   -1.52460186809528
H          -3.11263819119477   -0.03784624272734   -0.82508085084604
