    26
        -50.45986448  Gyration_radius:  2.6773351016 Dipole_moment: 7.673
 S          -0.30740020278182    0.49155359083869   -0.19121680072033
O           1.00142712045878    0.49816359079465    0.44187469697947
O          -1.05204921280738    1.79080475175453    0.20244962537222
O          -0.20084433010736    0.46252004975967   -1.65717722201669
O          -1.15387289157241   -0.61253784681244    0.26853659002785
O           1.96556241151612   -1.08977206047932   -1.63940571248584
H           1.27597739984903   -0.41990234810208   -1.81326067580638
H           2.23135257091490   -0.89991702125889   -0.73386433920640
O          -0.20194448001382    2.56779036632257    3.51748548957180
H          -0.18092541115183    1.59309504146260    3.40149185776385
H          -1.12744616448655    2.81728591101297    3.51204529812542
O           0.65696040694551   -3.28692599695811   -2.29321929245020
H           1.02888647186567   -3.58560171845551   -3.12485660166444
H           1.24646471927771   -2.55341865163865   -1.98117316835171
O          -0.16764695799909   -0.03026479577067    2.78256378280026
H          -0.91715832104352   -0.39132018691884    2.29524621799489
H           0.50498734839299    0.08438708977343    2.08953315076612
O           0.88410133642033    3.14412272813835    1.14378721706289
H           0.60760090349038    3.09593396261077    2.08937683806599
H           1.43543474819943    2.36395104348788    0.99177442502590
H          -0.35558651155529    2.46342286734710    0.50467328969086
N          -1.47081175529374   -1.73659318324666   -1.99556375427450
H          -1.53605616881332   -1.54630511835818   -0.94931107523455
H          -0.74921053261924   -2.48718619154894   -2.17049101490943
H          -2.36687208278288   -1.92688375301453   -2.42942912941537
H          -1.05093041431137   -0.80640211073711   -2.26186969271582
