    26
        -50.46919483  Gyration_radius:  2.46726954667 Dipole_moment: 3.371
 S          -2.10497666983523    0.74978476108110    0.87425575515778
O          -0.79043172293894    1.15022298237555    1.35996417780272
O          -3.16830293351887    0.88671046552531    1.81373786294600
O          -2.44833182662648    1.74243506705480   -0.33984322036647
O          -2.01382857104152   -0.56659102186082    0.22518623507925
H          -1.33316919377920   -0.20116798721928   -1.21428829972216
H          -3.06277914413562    2.32387472607396    0.09282560293726
O           2.66010262433727    0.38858738728128   -0.18739483997466
H           3.49040774536484    0.84332863529171   -0.32890483971997
O          -0.84313429640398    0.01358204324526   -2.04366701883491
H          -1.50574491885423    0.31603373540958   -2.66606986392159
O           1.35058273177989   -0.27052800077530    2.14752008745358
H           1.98837964886251   -0.00142845163840    1.46083341986520
H           0.60718061968047    0.35886785510679    2.06621469510799
O           0.63593170569001    1.92117754090773   -0.72665375455888
H           0.10782956081642    1.80084953779692    0.09001441167916
H           1.93519074946809    1.04572864869772   -0.40883854742736
H           0.14857562466589    1.41396876319291   -1.39777407747891
O           1.33697523299477   -1.61676433575300   -1.50654624683468
H           0.63652171505329   -1.09476719755458   -1.93066774787326
H           1.96679807035039   -0.96562054682234   -1.14388241479874
H           0.59938875694294   -2.07692215655554   -0.16416886188287
N           0.07754132473952   -2.08338703151013    0.76307770204249
H          -0.08070948513986   -3.02200590894854    1.10983173333522
H          -0.83090639035709   -1.57398074829483    0.60805243255988
H           0.64090905188218   -1.48198876210837    1.44718561743385
