    26
        -50.46100996  Gyration_radius:  2.42020933314 Dipole_moment: 3.538
 S           0.42664271637593    0.87414478665668    0.96325302490688
O           1.28873732345805    1.50012188847700   -0.03205059764364
O          -0.97058109835249    0.86570542898263    0.50647238482814
O           0.87032789021917   -0.47263575442225    1.28218213858807
O           0.49548960348757    1.73614335900459    2.24578079993093
O          -0.25889652989371   -1.57109297774903   -2.08607174229176
H          -0.53178103930162   -1.99169350227820   -1.23515806975497
H           0.67971950858918   -1.29891455928265   -1.94535058491183
O           2.12625450847410   -0.64002068310555   -1.34401999551898
H           2.47739227204737   -1.23078361622775   -0.67430330615910
H           1.90618566385171    0.17962805855652   -0.85171981210896
O          -0.66119602054045   -2.39128381055176    0.40347537309441
H          -0.22843607957374   -3.20004404342867    0.68261921980370
H          -0.12771513037383   -1.64931805735706    0.78086837482091
O           0.66714113349058    2.09345680067181   -2.52002899266784
H           1.34718765078718    1.60841551505909   -2.99521061392768
H           0.94839113740648    2.08993531647121   -1.57743014663657
O          -1.36265830652831    0.64798316909317   -1.95044217489908
H          -0.96385353759427   -0.34884993873036   -2.09445434373546
H          -1.30775917691485    0.77478535513497   -0.91983984818985
H          -0.65230781495021    1.28541085031683   -2.31398268305079
N          -1.32735855838974    0.16430585458399    3.24200445216803
H          -2.08583572912471    0.27321855298390    3.90308737749734
H          -0.15819694038113    1.26636499386885    2.83736340569921
H          -0.89153808848118   -0.73597065188516    3.39365048354641
H          -1.70535534778464    0.17098765516360    2.29930585661682
