    26
        -50.46919486  Gyration_radius:  2.46729523194 Dipole_moment: 3.374
 S           0.72756189382772    1.53348680368301   -1.69594333935393
O           0.49937888023445    1.85995026891011   -0.29393401860360
O           0.65000606961408    2.63506048027386   -2.59738083514192
O           2.23492043571315    0.98805001240020   -1.78271680797898
O          -0.08200197724625    0.36454708464601   -2.07087109620733
H           0.75436700939639   -0.86933261536873   -1.40229606378966
H           2.66392141002042    1.75094554735144   -2.15250586504836
O           1.21536305720650   -1.59891485639736   -0.92335128216733
H           1.93640296263927   -1.86918140616841   -1.49343379828868
O          -0.24672985062639   -0.54539323524305    2.62754586533036
H          -0.00410091019122   -0.64115698795502    3.54853256115611
O          -1.60751218680709    1.47010675577449    1.32800616167761
H          -1.20755200061985    0.85844239817117    1.97340709787641
H          -0.85536987281958    1.83331452308499    0.82026820139938
O          -0.95480854195248   -2.30909226894048    0.65318290690690
H          -0.13671711157800   -2.30112640617622    0.13008718942863
H          -0.74286280781990   -1.83482760697262    1.47928571591372
H          -1.80885938453162   -1.19000769127142   -0.10537041633582
O           1.80422920917728    0.08690900969287    1.16783072394874
H           0.59221038179156   -0.29570510276285    2.13750420708092
H           1.82731430484938   -0.62151121907453    0.50241484842813
H           1.43809334220426    0.85530126743370    0.68218187963502
N          -2.13524805385962   -0.27609782651637   -0.54179527977971
H          -3.05051083183688   -0.35774026833240   -0.96829518139070
H          -1.40682509298185    0.00426347424495   -1.24858723362725
H          -2.10467033381466    0.46970986552994    0.22623381891883
