    26
        -50.46862841  Gyration_radius:  2.47468550815 Dipole_moment: 4.031
 S           1.51831643173068   -1.16889321137385    1.17139645564685
O           1.77446245160416    0.15503571858590    0.57886449181273
O           0.23800260986869   -1.20488568209683    1.82368412104033
O           1.75693361146792   -2.23351827002799    0.21909051577803
O           2.62690366917597   -1.34782376933068    2.29456406545945
H           3.34018675276674   -1.72449741873205    1.79007902711816
H           0.45441369049136   -2.14639099716666   -0.72245742962453
O          -0.29850271878373   -2.01227597874602   -1.34901539228765
H          -0.59433861329613   -2.88916843868212   -1.59981696818414
O          -0.78730840988631    2.01686827633152   -1.66127537989672
H          -0.81338454718614    2.65025359304184   -2.37852481828189
O          -1.97873848088636    0.27220525370931    1.86360322192049
H          -0.97124675932900    1.30453141201890    1.43442898391358
H          -1.32007545125966   -0.41959846661769    2.06195832937961
O           1.10098356514909    0.26904954814018   -2.01642203688951
H           1.51374690821985    0.23635872365531   -1.13053133982239
H           0.63998418826714   -0.57975794919707   -2.09821108386482
H          -0.04930859294171    1.37245857146931   -1.87721506653557
O          -2.31649594271528   -0.21020554837436   -0.73518896944754
H          -2.33029325293396    0.02741717272582    0.97575102830985
H          -1.98294868386939    0.59116650537296   -1.16065597851391
H          -1.65840210090240   -0.90152579002842   -0.92210329577433
N          -0.16163589181557    1.88186242969852    0.98285748559404
H          -0.44678797947131    2.14788813393598    0.02099514596694
H           0.66193040020394    1.21987636844317    0.89657324983582
H           0.08360314633110    2.69356981319482    1.53757161735788
