    26
        -50.46862860  Gyration_radius:  2.47488632703 Dipole_moment: 4.027
 S           1.69279285952970   -1.19703534092598    0.86439462569827
O           1.58270512861946   -0.82935753649016   -0.55764619647184
O           1.37966228399531   -0.07999556814488    1.71301180968892
O           0.96935109049524   -2.41710119673955    1.15655460713996
O           3.22522651730681   -1.54820003870032    1.08957296638784
H           3.23630863379737   -2.47264581427344    0.86497411627729
H          -0.55959567101370   -1.91592213780208    1.16255662433138
O          -1.49510831800214   -1.61220821891231    1.06137744222899
H          -1.99485130129063   -2.05954252339183    1.74654058314423
O          -1.48872018244879    1.00843569277186   -2.05322138322227
H          -1.96882842786349    1.09167596864914   -2.87722226068271
O           0.21165685239665    2.30094018957534    1.45817143406092
H           0.66099313775092    2.06579875870901    0.04132996242091
H           0.68441330970962    1.53351218756474    1.83153853747459
O          -0.80698555354622   -1.45763597702326   -1.60481099396894
H          -1.27568700482623    0.03410882836464   -1.94508485297129
H           0.12523160068029   -1.36083923481158   -1.32580688981963
H          -1.27687343028771   -1.69949419101527   -0.79210578651698
O          -2.05104235283134    1.08716154866516    0.74564411213511
H          -1.87410060458942    0.15014478048664    0.93698149028350
H          -0.72139279838527    1.99458208465389    1.37240511747923
H          -2.05525543075424    1.16176441984083   -0.21817160780697
N           0.90635026561660    1.67725818327255   -0.94949899091255
H           0.02869409872020    1.60366044388505   -1.49861810242904
H           1.26884295166854    0.69246121935218   -0.79957096627513
H           1.59621236555790    2.24847346244096   -1.42329538765038
