    26
        -50.46862855  Gyration_radius:  2.47481366796 Dipole_moment: 4.027
 S          -1.67343799210172   -0.77827967864743    1.28034076203294
O          -1.56492834769159    0.61698531582783    0.82101510763839
O          -1.38385046504379   -1.69758146902823    0.21406137929670
O          -0.92885830487412   -0.99587028443195    2.50323738605145
O          -3.20003252788079   -0.97331196885403    1.67258929816289
H          -3.19345652852579   -0.69007038148296    2.58086285193422
H           0.59048487293440   -1.04208813882574    1.97513500572175
O           1.52048094491762   -0.96538139413494    1.64826941199495
H           2.02547263641994   -1.62409740033645    2.12827259576858
O           1.47755814402577    1.97822279633323   -1.16336376662213
H           1.95812626133570    2.79350931412754   -1.30742697466620
O          -0.25989221206495   -1.59985224717198   -2.19930771417749
H          -0.71957368148920   -1.92124229582863   -1.40099797550327
H          -0.69912238408322   -0.16874436456096   -2.04657994794493
O           0.84010288799369    1.68931297690086    1.33808763795625
H           1.28226189196685    1.93266923625064   -0.18039596542953
H          -0.09484450009827    1.40947044069611    1.27614040144981
H           1.31123044903285    0.89114510924219    1.62220009116864
O           2.02774550587266   -0.82277547922453   -1.07515203598697
H           1.86725518004358   -0.95369393001430   -0.12485021021150
H           0.67906191392959   -1.49942852696101   -1.91639488929898
H           2.03442805265133    0.13433643865120   -1.21064081265454
N          -0.93348311123261    0.84595494731449   -1.71725160274841
H          -1.27844691267129    0.76053202094251   -0.71853507752333
H          -1.63181080308412    1.28614719992224   -2.30482973629864
H          -0.05247096027733    1.39413174329074   -1.69448521008920
