    26
        -50.46862844  Gyration_radius:  2.47474817742 Dipole_moment: 4.033
 S          -0.47510834184854   -1.31570841629159   -1.75720167887500
O           0.80296168369239   -1.34547668590808   -1.02559970047118
O          -1.58906820929387   -1.26047283527972   -0.85052302576759
O          -0.47150369690831   -0.30479652617089   -2.79413348152265
O          -0.55441300041623   -2.70627334585688   -2.52043764854849
H          -0.09930597161017   -2.49750342334838   -3.32945845711738
H          -0.65742638910396    1.05203414043495   -1.94857195124317
O          -0.66907964827424    1.87929374110675   -1.40731584706499
H          -1.23793444651553    2.49391051372261   -1.87422156247281
O           1.67993254522425    1.12759040124180    1.83132601545626
H           2.44125891708525    1.54298383443296    2.23648750802827
O          -1.98552908163331   -0.72748955816060    1.72935194991872
H          -2.13607998456043   -0.98339057092530    0.79999922335234
H          -0.54133661099405   -1.14937276889672    1.75769536715502
O           1.89320300562266    1.09196304264438   -0.75706628001050
H           1.82875950926860    1.16603800797024    0.83989743818007
H           1.63026662836086    0.17395438019627   -0.96773455588942
H           1.15327431621355    1.63241367504108   -1.07349594173908
O          -1.06467901620499    1.74179178172899    1.33527253742185
H          -0.15189170317038    1.69704002461830    1.65044267362794
H          -1.00643861535164    1.80759491625940    0.36666445258286
H          -1.85601301491585    0.24918331085213    1.69586913039464
N           0.52314408912871   -1.32218168653514    1.58500699976751
H           0.85937588041596   -2.14632445591572    2.06925921825437
H           1.04347191154264   -0.47116614310897    1.87197685053669
H           0.64015923423094   -1.42563535385345    0.53651075605984
