    26
        -50.46862839  Gyration_radius:  2.47464878014 Dipole_moment: 4.029
 S           1.18286168178567   -1.51305263557112   -1.16404409258660
O           0.84594269849973   -1.64998350164514    0.26324832148622
O           0.04768836088026   -1.06405362849822   -1.92282124336030
O           2.39583424191558   -0.74492544151506   -1.35337207559773
O           1.52994952881601   -2.98260762655134   -1.65641464151947
H           2.45855578556902   -3.02930846952751   -1.45459821577695
H           1.88905595089291    0.76002499486993   -1.09033613771206
O           1.58409705302889    1.66263124214011   -0.82630820649675
H           2.01068956278745    2.27381151294844   -1.42950531244695
O          -0.96689578874102    1.11052907020333    2.29766709102142
H          -1.03353612753157    1.43998882754426    3.19391885494629
O          -2.33106904872230    0.02719182019578   -1.42415471614888
H          -1.57051025791550   -0.36969590351090   -1.88868741696090
H          -2.06372803890439   -0.65655064376508   -0.11024818087008
O           1.49047924300485    0.53120381400785    1.68756198933556
H           1.39014027849226   -0.34058079886619    1.25607933654091
H           1.71385422169152    1.13410197960953    0.96209925258841
H           0.00550458917416    0.92557604403700    2.13393978057746
O          -1.10848252048848    2.14282734207088   -0.36118314616023
H          -1.16215910861429    1.98220556500260    0.59056238089030
H          -0.17563973778335    2.00549231851878   -0.59967046227473
H          -2.02583689287239    0.93388958440965   -1.18639423153889
N          -1.65332841595445   -1.06508613514245    0.81562350805376
H          -2.21268040964020   -1.82896049116348    1.17662845738196
H          -1.56964259687559   -0.29336358607266    1.50461325849452
H          -0.67114425246522   -1.39130525374156    0.58579585811557
