    26
        -50.46862860  Gyration_radius:  2.47497717026 Dipole_moment: 4.029
 S           1.03347845239733    0.64940407190833    1.88597036477712
O           1.29913503556935    1.22638705735283    0.55705422171546
O          -0.37798411804893    0.49820720664697    2.11127712787642
O           1.82745741756404   -0.53917021873104    2.11872417102913
O           1.56655149304067    1.72576692806671    2.92501215224731
H           2.47736981030829    1.46394921223795    3.00890661060725
H           1.06566749665210   -1.64112064878801    1.22751303780655
O           0.64692075169787   -2.27745597392670    0.59711448421817
H           0.64026004080207   -3.12651089310781    1.04249618308058
O          -0.31444796141910   -0.10690779903393   -2.70900195799158
H          -0.13412459318881   -0.17519179888410   -3.64668516961139
O          -2.60351510505920    0.51922704442050    0.64658201843718
H          -1.99148483113546    0.48554012556473    1.40555668739599
H          -1.69361760047594    1.33611873738087   -0.23066031948298
O           1.80152278502397   -0.64368205069645   -1.30107886584332
H           1.56616534385190   -1.43627976067406   -0.79492930115075
H           0.53942057226311   -0.34084273159279   -2.23726655799634
H           1.79155684771218    0.07722344762072   -0.64047754251865
O          -1.70457701534561   -1.59340935562061   -0.70594510009373
H          -0.92681899695287   -1.87481776721735   -0.19425960196365
H          -2.49266471370407   -0.35494175566485    0.20458676122813
H          -1.35662357699967   -1.20944968040538   -1.52206117487061
N          -0.87489244755932    1.76308838954337   -0.81393692163823
H          -1.02814783588181    2.74171038991864   -1.02713154329603
H          -0.75789413056163    1.19768352141638   -1.67632628402814
H           0.00128688944310    1.63547430226693   -0.23103347994008
