    26
        -50.46862853  Gyration_radius:  2.47476967251 Dipole_moment: 4.025
 S           0.28798246434205   -0.53894998387722    2.16135660710438
O           0.59047150435714    0.78603668312787    1.59350892522771
O          -0.97402938248100   -1.03136509167595    1.68095613256229
O           1.40394051846392   -1.44978841223787    2.01236899305693
O           0.13975220048612   -0.30136853160144    3.72471269953811
H           1.04166796988228   -0.39907148015419    4.01138500073162
H           1.31999474214159   -1.84032366376939    0.45347610161664
O           1.31564739712410   -1.98826230290217   -0.52410292611747
H           1.53567220868314   -2.91247181590176   -0.65350267406741
O           0.33062533966467    1.59168113243976   -2.19210730545270
H           0.71733015384050    2.16720216085425   -2.85214953024459
O          -2.67941819028684   -0.45373085997005   -0.28263050347311
H          -2.27517888727362   -0.86073809988194    0.50652386301383
H          -1.98222063874313    0.87087341542150   -0.12878110901481
O          -0.78492756196730   -1.03376231556118   -2.06430691128216
H          -0.44337571177933   -0.16721627457926   -2.32311989754514
H          -0.08643858162075   -1.44231808514140   -1.52475367300192
H          -2.15582462653114   -0.81190406484737   -1.03723575265427
O           2.14242164338530    0.64211591662851   -0.59112060067930
H           1.08875481106652    1.25696912384260   -1.62677634691459
H           1.72151979515941    0.76345038040889    0.28315807092306
H           2.12198885225472   -0.31612662171931   -0.73638274546746
N          -1.28237141131005    1.70007888925818   -0.00371167041747
H          -0.78076029509522    1.84293655903348   -0.90097464785434
H          -0.56762228830402    1.37895596773961    0.71027155288000
H          -1.74560203545584    2.54709735506326    0.30393835752335
