    26
        -50.46999484  Gyration_radius:  2.46242541188 Dipole_moment: 3.097
 S           0.80193604050881   -0.49514759262005    2.00374049622019
O           2.18804597433721   -0.10793076266685    1.90092261084155
O          -0.14503549272897    0.59008376845823    2.01516936111976
O           0.42188671371390   -1.50350330728020    0.99721098963711
O           0.68308873333985   -1.25176916055797    3.40103438272499
H           1.57838462991600   -1.18725179578092    3.71571231391514
H           1.20301134470101   -1.44907249426168   -0.44501547379721
O           1.60398864761004   -1.33224551176989   -1.34031515681929
H           2.28980865513097   -1.99645257184623   -1.41731368880238
O          -0.45679806013046    2.10029255828168   -1.33775559853541
H          -0.28300917332955    2.96688627075672   -1.70706603565270
O          -2.23979070533203    1.44702926567873    0.64389253811818
H          -1.56316648759108    1.30459944340648    1.33504469782041
H          -1.74886437030424    1.87593861701832   -0.08050256243215
O           1.82289304304878    1.24586346116064   -0.36489344688741
H           1.96027334039506    0.45543568719958   -0.90991992012604
H           0.38073404860864    1.82910180653657   -0.87560716069489
H           1.97710591907832    0.94048849675405    0.54770650144361
O          -0.72313437025585   -0.38218532900233   -2.49424289325548
H           0.15626724222623   -0.75144623891420   -2.30867763450248
H          -1.54567296137621   -0.86407032355602   -1.19925889975540
H          -0.65847180614193    0.56705359758207   -2.28033343497998
N          -1.87674514693673   -0.99844363567933   -0.19934992395479
H          -2.19135182122872   -0.03745858549823    0.16103677616822
H          -1.02814920120955   -1.26934479212509    0.36464009773258
H          -2.60723475605174   -1.69645086127128   -0.12585891555848
