    26
        -50.46999514  Gyration_radius:  2.46249172676 Dipole_moment: 3.093
 S           1.01032905486338   -0.30846945625125    1.94626323683717
O           2.17493279222365   -1.08120649446458    1.58800257343753
O           1.01726664403343    1.06272402379755    1.50513714671397
O          -0.24819555632045   -0.97108803576775    1.55734165917801
O           0.98911398272786   -0.30091233616840    3.53954770721975
H           1.77358443137905   -0.80359690135874    3.73112268367415
H          -0.21461209568906   -1.91232981522204    0.21340516785099
O          -0.20222756104391   -2.38353771749815   -0.65479225117931
H          -0.16172506239409   -3.31906587492072   -0.45332468390502
O           0.46162533527868    1.27619511113317   -2.13705054410810
H           0.97338484515992    1.59586496615144   -2.88102314446160
O          -0.43362871864691    2.70901131249839    0.02620526465194
H           0.21072337246423    2.33469103602102    0.65903495767123
H          -0.10223619503582    2.42162596261488   -0.84398712231788
O           1.89281629239825   -0.61560867692863   -1.02040774484467
H           1.30098583436542   -1.37505501719836   -1.13712916102989
H           1.05281287945600    0.63878396453328   -1.65464555205757
H           2.15733465023739   -0.65620142128617   -0.08326654149289
O          -1.67597877621815   -0.44808317476510   -1.97025592222819
H          -2.05524457199941    0.20754750653516   -0.55197532109243
H          -0.97042654988004    0.17185719442122   -2.23270556476451
H          -1.21933125575550   -1.25826902553712   -1.68873627069015
N          -1.99132819561284    0.64778736213644    0.41222048502496
H          -1.48810897216135    1.58890534579330    0.29699211988140
H          -1.35315165474281    0.03191432970094    0.98234419262669
H          -2.89871493908010    0.74651582203124    0.85168263940680
