    26
        -50.44630547  Gyration_radius:  2.69381721903 Dipole_moment: 7.797
 S           1.73397233970347   -0.75810660849391    2.37384572321499
O           1.19006287068870    0.67017659566886    2.59520434802628
O           2.19262859379740   -1.27268923891712    3.60779502977976
O           0.70638681486834   -1.53417113819254    1.69475699559015
O           2.88934011085170   -0.53986234797984    1.36968847792051
H           2.73393590829532   -1.14210029192875    0.56939598044930
H          -0.82508531365648   -1.15154128962654    1.22759563534328
O           0.84911077176239   -0.04494945426074   -1.83557778075677
H           1.14933813118172    0.24235721456969   -2.69826870409035
O          -1.67326395552487   -0.74544858593407    0.93385851710137
H          -2.28647858019499   -0.85638761976902    1.66153385948685
O           2.11813413622276   -2.04055264245103   -0.53222077989466
H           1.41577404329238   -2.33348020675667    0.06572527939795
H           1.70540117763094   -1.37425502248066   -1.12023208510088
O          -1.71418302743170   -0.45171157021351   -1.85554125341133
H          -2.00293810686164    0.48978515537867   -1.83095071028374
H          -0.12020623003576   -0.28724230779226   -1.93340759347257
H          -1.87092637316382   -0.78686812264043   -0.96126428410675
O           0.02449473275021    1.31929775960113    0.38872692319134
H          -0.72789572352923    0.71435838815500    0.53889867386979
H           0.79111553996376    1.01053140421794    1.73745707537649
H           0.50399351075303    0.94150759530934   -0.37273699721682
N          -2.18947333322515    2.22103686276249   -1.48539043030178
H          -3.07178383316296    2.44784492668427   -1.04406045614225
H          -2.07209471956825    2.84173010530265   -2.27620886124140
H          -1.44935945547359    2.42074042976888   -0.81862257280766
