    26
        -50.45720845  Gyration_radius:  2.51169741465 Dipole_moment: 6.170
 S          -0.24660993603289   -0.63871848637564    2.14392643342607
O          -0.10887852137921    0.78958633496590    1.78500311741635
O          -1.12725610130493   -0.84588745673444    3.24456602795535
O          -0.68502034748564   -1.37215537073017    0.92867083126683
O           1.17433545864519   -1.16544683450638    2.50210096047075
H           1.77737420439173   -1.02977038360190    1.72966104567149
H          -1.91974777517349   -0.45334579932675    0.59594618213037
O           2.77002902681625   -0.96377494751439    0.39681515617605
H           3.44070725422994   -1.63978117755106    0.50536495077275
O           0.36199266765481    0.85671141104834   -2.20982888098813
H           0.81955440182930    1.28975968926671   -2.93191157619403
O          -2.27025770944841    1.19360035550518   -2.00905976605232
H          -1.29003103161397    1.13918964534594   -2.11084560390791
H          -2.63765312722073    0.55294287388954   -2.62056540478604
O           0.85970680551428   -1.70400936072265   -1.19045158788058
H           0.22349207905509   -1.71599861036970   -0.44153377757532
H           0.63719438760693   -0.91185840180356   -1.70486646039357
H           2.11977044109257   -1.31048222455402   -0.28547558640200
O           1.60887566447700    1.53736884629245   -0.04901292111510
H           0.97605005500737    1.36989781248871    0.68747731441561
H           2.30968850077572    0.88566215121359    0.08281476744878
H           0.82009705256042    1.17273078974821   -1.36986286164377
N          -2.35697051424835    0.52102491305237    0.57143327392340
H          -3.23368085865173    0.55982521042288    1.08026956702667
H          -2.43831045032053    0.86322087078371   -0.42201801133793
H          -1.58445160679152    1.01970817979475    1.09138283018085
