    26
        -50.45720848  Gyration_radius:  2.51172625908 Dipole_moment: 6.172
 S          -0.56377649946510   -0.21457163720209    2.16833686389599
O           0.59598617672822    0.60790243865009    1.76063898264049
O          -1.25246590041596    0.32619916016758    3.29220570728184
O          -1.45097388121842   -0.36635134252722    0.98635127489498
O          -0.02597733026746   -1.63414327605118    2.51519095668578
H           0.43995893378469   -2.00869232342246    1.72690850696000
H          -1.56894589167838    1.16658748447879    0.64843068179470
O           1.08515123716884   -2.72794988747261    0.37341849244470
H           1.01310920599284   -3.67637133523317    0.49111985299318
O           0.80101770457811    0.26782057343726   -2.24389109713931
H           1.39960697691512    0.19731451104732   -2.98886112644588
O          -0.64593651835163    2.48843276717462   -2.00150508878955
H          -0.05444078070165    1.70743672307977   -2.12109333938250
H          -1.39399072393995    2.34817326744879   -2.58469925253921
O           2.21027513183909   -0.22180395570792   -0.13150987055501
H           2.17658767661199   -1.17713504261401    0.00791960885367
H           1.37059085913064    0.13103985297318   -1.42416144520609
H           1.69992014750819    0.15466633543706    0.62260005448599
O          -0.77928255296581   -1.76986443326749   -1.15058944613099
H           0.37315324909678   -2.46450674420662   -0.28401287024849
H          -1.17369575501484   -1.28942237923326   -0.38939775547340
H          -0.34265348822276   -1.08889556981826   -1.68652070821617
N          -1.11528575034218    2.13264495745317    0.60072056125470
H          -1.63701715133083    2.82668346015443    1.12525888765159
H          -0.94600940216507    2.41088226323410   -0.40160377088735
H          -0.21490564331254    1.87392413201262    1.08874531915552
