    26
        -50.45720847  Gyration_radius:  2.51168507592 Dipole_moment: 6.171
 S           0.12429744264795    0.05295692212981    2.24647642049973
O           0.94892656291309    0.95727182794771    1.41586092829454
O          -0.30370323774946    0.66131880810994    3.46159324395672
O          -1.01857268582629   -0.40932452256737    1.41745430315490
O           0.98951471377645   -1.20219896619703    2.56388684588182
H           1.27311355873087   -1.62633299919950    1.71629670099715
H          -1.50722248124253    1.01831502533559    0.96785502872480
O           1.62816219833498   -2.45105063591107    0.31640812442325
H           1.76776152797307   -3.36943356015592    0.55228704464136
O           0.06785261928592    0.02135427639819   -2.39652254318358
H           0.43247421029864   -0.08006017519877   -3.27689221688236
O          -1.63327388383951    2.02195418663062   -1.96441229769421
H          -2.47695854282281    1.68529484496246   -2.27132495842165
H          -0.96686144039489    1.32477328397374   -2.17415386530996
O           2.08402357047030    0.07800904314119   -0.77801414225266
H           0.86184232568981    0.09863746299342   -1.78110213643813
H           1.74857428288505    0.49223993257131    0.05067061573315
H           2.26704895531490   -0.83816100666200   -0.53228313849719
O          -0.73492456637986   -2.02214167330301   -0.65745126482688
H           0.72312856004013   -2.39921012241113   -0.11577836496146
H          -0.97823453133273   -1.48876883892275    0.13129093424260
H          -0.60121131958349   -1.37919056991220   -1.37184410363659
N          -1.27089320789362    2.01922865606082    0.67885491380865
H          -1.44733528282347    2.15659405627391   -0.35106740754857
H          -0.23741671693932    1.97196724734138    0.89230598290210
H          -1.74011265148094    2.70595750656184    1.25960534240237
