    26
        -50.45720847  Gyration_radius:  2.51169341288 Dipole_moment: 6.171
 S          -1.83866204305066    0.01827707567202    1.29770553718750
O          -0.64539831552775   -0.76872486111407    1.67782896931530
O          -2.51150272558638    0.57394723054648    2.42392493473881
O          -1.40633585317454    1.06089563358211    0.33173350980318
O          -2.79934901403221   -0.93783627963895    0.53111207684070
H          -2.32999090499849   -1.31059558295861   -0.25597176487907
H          -0.23970489324052    1.65053400484279    1.20947393153010
O          -1.62370277067383   -1.82501256971327   -1.67099985892641
H          -2.32988421304707   -2.03416243334114   -2.28428640566253
O           2.00469493023106   -0.21116934469413   -1.29810560289425
H           2.68082838876379   -0.63654070779130   -1.82741434933214
O           2.75579528620536    1.69004254325367    0.40597383062450
H           2.82338260698463    2.47900643931541   -0.13468446748128
H           2.54324472274229    0.95081345327294   -0.21252570943625
O           0.69144820838415   -2.11103332372869   -0.13472160985913
H           0.23211201664053   -1.68906164224783    0.62803622018649
H          -0.02159625378018   -2.36266193962428   -0.73596809232276
H           1.53628605511084   -0.95562977345637   -0.80664555302263
O          -0.57710451577113    0.50382689024389   -2.11548272236912
H          -1.23605981306365   -0.94707200236374   -1.96683292281891
H          -0.93685279342880    0.84282892067704   -1.26608653718998
H           0.37415215844231    0.38681318454349   -1.96376332411617
N           0.55664652510407    1.49015327055208    1.90325252822583
H           1.48928939538336    1.61548598380598    1.42866739071121
H           0.35333250506292    0.47167239010063    2.09620237939406
H           0.45493133037189    2.05520345032734    2.73957761173753
