    26
        -50.45720848  Gyration_radius:  2.51169128357 Dipole_moment: 6.171
 S           1.28308849570032   -1.26246541666447    1.35081854821461
O           1.85814020983491   -0.12927071831492    0.59390351001940
O           1.88254767095947   -1.42704208687251    2.63275876765849
O          -0.18461028683016   -1.05053693151042    1.44074581879937
O           1.50303411958516   -2.54750327259230    0.49932075048463
H           1.07397926025196   -2.43114198928321   -0.38448541289606
H          -0.12267756982955    0.41442092702179    2.01447625179620
O           0.22707320468004   -2.32884873214727   -1.81211839840020
H           0.03319216838552   -3.22377510071185   -2.09508437413093
O          -1.18849799340638    1.39080689939211   -1.54968696962033
H          -1.42923173421707    1.78034001375806   -2.39145912502359
O          -1.28362307932623    2.92980795646136    0.61951374672972
H          -2.20619973233035    2.91414343677235    0.88014362924899
H          -1.22809050744424    2.42049195177397   -0.22408513383316
O           1.13684433491294    0.31098585199051   -1.88812893311065
H          -0.25919296611100    1.02286416248001   -1.67666254424709
H           1.51404840840027    0.20235456368009   -0.98437963375824
H           0.98051978299909   -0.59194591330128   -2.19394833198462
O          -1.79285237078353   -1.19258490691123   -0.65219620087213
H          -1.77559265109936   -0.27206084701535   -0.95872716408467
H          -0.62844497137250   -1.95085780282815   -1.44636643041274
H          -1.31574342056856   -1.19032342855498    0.20696383209280
N           0.35286437114915    1.37074610032620    2.03704935319969
H           1.18945244383040    1.11012372624122    1.44708536544013
H           0.62820130755291    1.63897250848076    2.97582000800863
H          -0.24822848492109    2.09229904828929    1.55872907067586
