    26
        -50.44630553  Gyration_radius:  2.6938935897 Dipole_moment: 7.797
 S           0.54943446678457   -2.57094109465439    1.51789955360176
O           1.14819944472378   -2.69666764417072    0.09992925148957
O           1.12731467485069   -3.55590855025766    2.35087834418815
O           0.70109618397983   -1.18997186784941    1.95288761502308
O          -0.95854280675094   -2.82026798086732    1.28355904593842
H          -1.47441721757746   -2.03723154045401    1.66827072937728
H           1.40468769706107    0.11416809615255    1.23577804672202
O          -1.92871283322872    0.57283088296257   -0.20812705763440
H          -2.75355171572717    0.83231535785187   -0.61951476450544
O           1.77814169372379    0.80760523808888    0.64393298524261
H           2.72234622756689    0.81410560238841    0.80600710275630
O          -1.91801184470239   -0.65087775808682    2.19897821689239
H          -1.01878980750447   -0.44889085012682    2.49416772338100
H          -2.04162700113968   -0.15251662948808    1.36445805034677
O          -0.24001036540096    2.54344825082265   -0.23967955859744
H           0.01883129885585    2.48799614245860   -1.18854284134089
H          -1.36105154419019    1.39906409912304   -0.15402781179190
H           0.50937304664358    2.17307875476156    0.24805068973829
O           0.33573762818703   -0.61380191497282   -1.18452028853580
H          -0.56766962215684   -0.37348343983476   -0.90418173837234
H           0.92277006248644   -0.00734986082375   -0.69236018215896
H           0.80039728311606   -1.94908106802045   -0.47537623526326
N           0.48537043950215    1.94577607772465   -2.81323200940479
H          -0.14668890436118    2.20400461324508   -3.56041371742716
H           0.48941559468796    0.93222244785289   -2.74341011650747
H           1.41595795062588    2.24037462619190   -3.08141100317506
