    26
        -50.46092007  Gyration_radius:  2.40604786629 Dipole_moment: 8.110
 S          -0.28357584291903   -0.71706501431180    0.52274432495213
O          -1.19969120576935   -1.43169645846271   -0.31993218016480
O           0.84678954195940   -1.50681810191533    1.00821613667794
O           0.39928965129665    0.43667786829510   -0.29360097010630
O          -0.96277610563723   -0.03101379656319    1.63828735426129
O          -1.15344296772825    1.18333303673276   -2.06675334657060
H          -1.96890488275390    1.14797444310233   -1.51928157949163
H          -0.23692093532653    0.80823292289345   -1.07280324944675
O           1.99207133279433    2.07665064827977    1.13195878857204
H           1.67252473038245    2.97349810985973    1.01720550342670
H           1.49285049868283    1.52578408295841    0.49477980427513
O          -2.93594423608433    0.70038962024816   -0.10718145673398
H          -2.31805363295153    0.55241525764145    0.62892379206987
H          -3.22607709157349   -0.18254733962055   -0.35470609582870
O           1.59988950697817   -1.71728012594896   -1.67660441796016
H           2.03522702647627   -0.86181454346143   -1.68553259514372
H           1.32772034757527   -1.86132265608335   -0.75930217547219
O          -0.86424875286079   -1.27627818849953   -2.96943823532693
H          -1.17994244478237   -1.55669919680428   -2.09261218988079
H          -1.13042402588575    0.34637314040261   -2.60438586237977
H           0.07869980846540   -1.49747698444960   -2.93605680432406
N           1.23674229809759    0.19402303107282    2.86161940804868
H           0.19084891751040    0.27208193575097    2.63299999487972
H           1.71120360681339    1.02165061304018    2.43864269419886
H           1.45418640444036    0.04964915549287    3.84129418027971
H           1.42195844280162   -0.64872143965103    2.24151918719005
