    26
        -50.45860915  Gyration_radius:  2.40819212149 Dipole_moment: 7.094
 S          -1.40411208390080   -1.21350521240834   -0.63000727409732
O          -1.80366580183337    0.05259928116825    0.01613121393861
O          -1.52979617826949   -1.18274685925346   -2.05624154874847
O           0.16244616923015   -1.35234589025367   -0.30015997394200
O          -1.96523846053074   -2.34452838054069    0.08043864656323
H          -1.64816274282076   -1.90147786565953    1.61224356820523
H           0.71990196078245   -0.83949907810668   -0.92420537365340
O           1.69531328159955    1.55518547867056    0.67779963850374
H           2.18185092369057    2.34881787384607    0.90384649946318
O          -0.21578798676287    1.04810847720629   -2.86421589093388
H          -0.80379876947698    0.28460522796373   -2.70887826728454
O           1.16387214883794   -0.71687424922934    2.15975844817302
H           1.12171864293090   -1.24584658173656    1.34889543538286
H           1.36993088354826    0.18025895775858    1.83868695214382
O          -0.46625668892241    2.27953399544715   -0.49708719563342
H          -0.34091433431436    2.09507669462267   -1.45369714748923
H          -1.10056253418222    1.58404526562893   -0.23498659197229
H           0.82509397794011    1.87675675563621    0.26342893734854
O           2.08020897790208    0.03811373583133   -1.50743150304918
H           2.88534960067767   -0.47886597905330   -1.45099808294820
H           0.68176721908328    0.70138620586334   -2.82554019278256
H           2.07448255200754    0.65004635519817   -0.73707791441424
N          -1.47112161503855   -1.06947694560674    2.24531231874728
H          -2.04810824504704   -1.06207149751878    3.07909652240524
H          -1.72391456047235   -0.32567198878301    1.52018290987959
H          -0.44049631664299   -0.96162377667358    2.44470587621635
