    26
        -50.45860903  Gyration_radius:  2.40816888004 Dipole_moment: 7.098
 S           0.18081917558527   -1.35676758438914   -1.40272282155704
O           0.86087614776066   -0.05880299724514   -1.58457270064394
O           1.06975932773704   -2.40862695480113   -1.00993407847071
O          -0.82598320255892   -1.11069272236123   -0.17470886398624
O          -0.73278453692212   -1.60850523870648   -2.49847169486088
H          -1.44819556765469   -0.15214525714045   -2.60973627952643
H          -0.38012631507344   -1.20441979833168    0.69445639156688
O          -0.10991381678282    1.63588779603945    1.74924948094179
H           0.07638825973489    2.35981009684478    2.34835599891356
O           2.44028480411248   -1.45712244894904    1.12844275568972
H           2.10427469370894   -1.88150778192318    0.31612201388462
O          -2.25355774276325    1.20616467935967    0.05835337032485
H          -2.13548686941968    0.24757008463615    0.13721068224095
H          -1.55471599018052    1.57192738025162    0.63136367456766
O           2.05062481606819    1.11142980072350    0.47101926359699
H           2.41010168727221    0.28219619250371    0.85563996979889
H           1.72152614680200    0.80928783949195   -0.39797844165547
H           0.74720507271806    1.48839919845289    1.22384072321326
O          -0.07988372147935   -0.97838632924050    2.37399292985574
H          -0.09785176932228    0.00193568682845    2.29287546549888
H          -0.83612926000247   -1.23138266804896    2.90583356419322
H           1.76652170253842   -1.60470018230814    1.80046601971876
N          -1.32276859347719    0.88196790849271   -2.41217415000866
H          -0.28756755048394    0.81803395799592   -2.15245335666114
H          -1.83930030940007    1.16233936928712   -1.53567341878233
H          -1.52411658849376    1.47610996252038   -3.20879649786069
