    26
        -50.45860922  Gyration_radius:  2.40820020107 Dipole_moment: 7.096
 S           0.49662671102902   -0.61920353687985   -1.79133307462078
O          -0.05503645584326   -1.59784344776951   -0.83320298793334
O          -0.45277412515051   -0.19957192432641   -2.77796462611178
O           0.83968546522927    0.66844357583044   -0.89311564467546
O           1.80987611945538   -1.03453918592444   -2.24062991764421
H           2.46910025837726   -1.47074357120809   -0.82060483094269
H           0.05299834758184    1.23550016742271   -0.74206403629890
O          -0.72277413364525    0.74972457543409    2.15967197747385
H          -1.17479172562729    0.84858727379185    2.99847634710165
O          -2.65699935471216    0.57731447580155   -1.40081333253777
H          -1.98337361246270    0.23673977288582   -2.01970581749286
O           1.96117334006055    0.41948370758032    1.58387964008013
H           1.07293279216384    0.44643745745832    1.98447328103558
H           1.83761563020582    0.84948380523800    0.72426283587499
O          -0.97390139177777    2.37624101923156    0.03516272385007
H          -0.94206083679027    1.89220287757271    0.89124470524409
H          -0.53227401379190    3.21627286299187    0.16946365050374
H          -2.35298629800147    1.45199706276636   -1.13640077267950
O          -2.06763923578416   -0.91458541928822    0.74600041632588
H          -1.24913110696464    0.04818202201904    1.64660212371295
H          -2.54388922655928   -0.38636865219930    0.06851213680377
H          -1.37661501839277   -1.35599927352732    0.21462776672183
N           2.24890013201119   -1.80874727456279    0.16013303066531
H           2.31102662547180   -1.01599677358688    0.85380455540202
H           2.77530850085411   -2.63046275409721    0.43549820037232
H           1.20900264302176   -1.98254884264651   -0.01597835022254
