    26
        -50.45019014  Gyration_radius:  2.49749055015 Dipole_moment: 5.273
 S           1.15968300479617    1.37109014120010    1.61821371002855
O           1.85178938931092    1.50525607224153    0.35599957645927
O           1.41238935367709    2.35148968197698    2.60504143306562
O          -0.36617535631577    1.28693516588006    1.29161523936236
O           1.42887902912849   -0.02579893723759    2.21212050696065
H           1.32708736599975   -0.74083515363091    1.51411954625905
H          -0.48399409275059    1.72584910840333    0.37981184441676
O           1.15022810510062   -1.93458638052687    0.50118292782837
H           1.22702095569548   -2.76292568903584    0.97736944220626
O          -0.28350283418718    0.00478870501432   -2.45696496888492
H          -0.31092416344616   -0.04775807577592   -3.41301587267463
O          -0.33407573403804    2.28850075070864   -1.02989595635513
H           0.62221764763553    2.39912995202617   -0.92987892909619
H          -0.45209933856272    1.51439472802904   -1.62314645039221
O           2.13635021695524   -0.36234243681558   -1.54904909772676
H           2.05024835358232   -1.13989001698728   -0.97993199436458
H           0.66622400297899   -0.16452509512584   -2.19028408381667
H           2.21042854171839    0.38537274866882   -0.92627174243836
O          -1.16898625638792   -1.84723775526237   -0.58676721346682
H           0.22089582845773   -1.92861155323339    0.08901794860916
H          -1.79436896296648   -1.40769553115086    0.04073649348385
H          -1.03530495763101   -1.22114754087040   -1.31721716959391
N          -2.70790516349201   -0.49099490960208    1.17296152791101
H          -2.00604872033146    0.19036109672843    1.44831786745028
H          -3.02594630798289   -0.96587330187120    2.00823343387717
H          -3.49410991694277    0.01705421624458    0.78768196087561
