    26
        -50.45860918  Gyration_radius:  2.4081181357 Dipole_moment: 7.093
 S          -0.30071975370131   -0.58079508315998    1.84697502810394
O          -0.47318644022006   -1.56509996145903    0.75998702584066
O           0.93149955135692   -0.73803257236197    2.55954447927799
O          -0.22892943298488    0.83675287878352    1.09345999305783
O          -1.52243490812506   -0.45469070257150    2.61539454233059
H          -2.60867154654648   -0.37856235346099    1.40856552578581
H           0.67122149890441    1.03004878583934    0.75334062884280
O           0.47210046194000    0.65275991279046   -2.25802045875269
H           0.71741418118164    0.66054226926310   -3.18401315490097
O           2.87502113827828   -0.79754733066454    0.66807069661390
H           2.27969641439216   -0.89814981996455    1.43501125732720
O          -1.87225872352283    1.41756631789017   -1.00868941793128
H          -1.17961405742045    1.11848940733998   -1.62600901455495
H          -1.38077158313205    1.63793866316582   -0.20312856632040
O           1.21621203288394   -1.59764671064899   -1.27864025293991
H           0.73187924164141   -0.26740373683767   -1.91420152685490
H           2.01701184078834   -1.41691128086909   -0.73927691353095
H           0.54144210278824   -1.77038930954745   -0.59340428313832
O           1.89357722942243    1.71974402274268   -0.24205190770947
H           2.94196240479460    0.14990371318897    0.50913882268573
H           1.45742676709805    1.41420805705399   -1.06942218229907
H           1.85261591778830    2.67738671550150   -0.23868283298646
N          -2.78882547986779   -0.64543888157483    0.39819998396212
H          -3.67213669739538   -1.12201233434226    0.25404883323519
H          -1.92420738302727   -1.26541124428353    0.29399652851309
H          -2.64732479701829    0.18275058795503   -0.24019281377931
