    26
        -50.47304519  Gyration_radius:  2.41243958422 Dipole_moment: 4.419
 S          -0.42971488492522   -1.12904659548945    0.72958553814512
O          -1.36725488863096   -1.94925391860024   -0.02217609782593
O          -0.61351970406218   -1.46963605129967    2.22120456724173
O           0.95331938294150   -1.39259882483497    0.34625133349533
O          -0.74071091665850    0.29849530228793    0.55640056163494
O           1.24164972901317   -0.30013274815247   -2.04783379010021
H           1.33121420327261    0.61624607496111   -1.73143950496812
H           1.29957620387170   -0.83683258507897   -1.22711257895345
O          -2.51465724176813    1.18056702087919   -1.16304387663383
H          -1.88514682758671    0.93235022558566   -0.44337442290785
H          -3.39046202199846    1.07783463809307   -0.78781076060205
O           1.02568652808815    1.93272818707328   -0.47679159940852
H           0.35998406069413    1.35777349357570   -0.02763862054003
H           0.60508473492831    2.78595483899286   -0.59106816707481
O           2.50896036315517    0.47157913110121    1.41900374160321
H           2.29517457081452    1.20061388545818    0.82083883591323
H           2.09480385565083   -0.31538085750551    1.00771342304564
O           0.84541993644432    0.28083605996633    3.42887379776180
H           1.31899681713834   -0.14595440352817    4.14609353801607
H           1.52421749607853    0.46816320699476    2.72381922589813
H          -0.10292113526015   -0.76858017177989    2.72331242646373
N          -1.28673940234291   -0.86556093819010   -2.36198234129065
H          -1.37745851065832   -1.45113538460038   -1.46964256348368
H          -1.59111916389718   -1.37019333361530   -3.18688238585642
H          -1.85602690504494   -0.00888089664014   -2.17986931839321
H          -0.24835625932769   -0.59995535557874   -2.40643097116614
