    26
        -50.44630551  Gyration_radius:  2.69386013331 Dipole_moment: 7.797
 S          -1.56523490100426    2.14009109903923   -1.47814731666312
O          -1.64391590076790    0.82490586898889   -2.28359630011261
O          -2.58883666864880    3.01071738387019   -1.91663975453549
O          -1.56844366932395    1.80493483301651   -0.06150096842308
O          -0.15730537209000    2.67788038997434   -1.82403162015954
H           0.34260384162809    2.84170772837928   -0.95772888528601
H          -1.69001191600073    0.36309726644629    0.72329396936396
O           1.95532125694169    0.35970952286782    0.37720546911308
H           2.90649017581068    0.25014733641131    0.39100260254569
O          -1.68064263101057   -0.57091689667655    1.03660051003237
H          -2.59870441545983   -0.82779862197649    1.13157679991763
O           0.85111438096238    2.82087482427210    0.50565030291338
H           1.35925697594187    1.98334928715555    0.52457039200534
H          -0.03178035515905    2.59944218730129    0.83443446672828
O           0.83288658077715   -1.23598357460432    2.08885627428130
H           1.58971888048915   -0.19894624908783    1.12697442189705
H          -0.09885463170164   -0.98475349789182    2.01569685329641
H           0.91449816064338   -2.07159889086764    1.57352325307910
O          -0.02080688090114   -0.80307547483807   -1.11636019287674
H           0.75721301661921   -0.32141080330330   -0.77690509386136
H          -0.60268975854703   -0.92165800049975   -0.34049008907935
H          -0.97007899267146    0.17239503658805   -1.92169258568041
N           0.93837970929910   -3.31116332228349    0.30323065688527
H           0.70124189891938   -2.80139751301756   -0.54296622419063
H           0.24000905092147   -4.03199074967567    0.43507324380268
H           1.82857215436363   -3.76855916955418    0.15236981496795
