    26
        -50.45019001  Gyration_radius:  2.49747476614 Dipole_moment: 5.273
 S           1.13428345921020   -0.83406681846335    1.96479267964969
O           2.03399862803597    0.07806982589837    1.29485470073854
O           1.41682073965444   -1.15290147154462    3.31287152929879
O          -0.30374961533379   -0.23952231164589    1.82064146128363
O           1.01570150286345   -2.13793134468991    1.15084043516417
H           0.88749050698886   -1.94420678521638    0.17365265640954
H          -0.18089118046720    0.75881349322024    1.65958966936686
O           0.64210853496848   -1.74115820219133   -1.36916937898438
H           0.47365588431549   -2.59362591127137   -1.77381214400729
O           0.12261104759621    2.03883715574067   -1.39294410571070
H           0.23851104909241    2.78118055307949   -1.98711037623557
O           0.30519121361189    2.15719074024805    1.29195638055635
H           1.23511868568005    1.90030024093344    1.36906194127494
H           0.13038166413729    2.23840254590882    0.32871440850854
O           2.24140655795895    0.51475360045279   -1.34426330499025
H           0.96357904995300    1.49868247289455   -1.44592714499657
H           2.36270889832125    0.40549039496034   -0.38207065641180
H           1.91028214258108   -0.34405576547195   -1.64223577210997
O          -1.40650143894881   -0.25035454048362   -1.75621829700756
H          -1.03357426312332    0.64310672182232   -1.67779119412985
H          -0.18863767607167   -1.17879907605467   -1.53452743753370
H          -2.02328610771106   -0.35845460740232   -0.99065091260833
N          -2.90371610260197   -0.53743077278550    0.47511631172050
H          -2.13315801068958   -0.55835591888580    1.13727971757190
H          -3.44092480210788   -1.38672576200204    0.59512086206708
H          -3.49941038790311    0.24276154295875    0.72222798111587
