    26
        -50.46456596  Gyration_radius:  2.39514315151 Dipole_moment: 4.080
 S           0.42143211210064   -0.63307076977085    1.60970440881341
O           0.34965658162628    0.44945743760203    2.55159279361209
O           0.48773774199683   -1.97912364318706    2.13765188367905
O          -0.93003105563239   -0.64498020680404    0.77529827177349
O           1.48538889404300   -0.41903845121501    0.60096423040211
H           1.61584132186667    0.90773513909405   -0.26910422411797
H          -1.27055323132051    0.27066378318732    0.60469275767063
O          -1.90003194927684    1.73761949926980    0.25287084777924
H          -2.65855318321736    1.93367101976924    0.80476523565229
O           1.62184915594535    1.71488698516413   -0.84537438281168
H           2.52910170783186    1.84382369559409   -1.12415853013764
O          -1.27630457887640   -1.88723411939691   -1.70961914447863
H          -1.89753331686413   -1.74385164428425   -0.98896629089859
H          -0.05453805934447   -2.49298980129738   -0.92717377162385
O          -0.66249477302525    0.68996230946010   -2.07323252562715
H          -1.00724177754044   -0.97595093912269   -1.98212715139840
H          -1.29619080430246    1.13474234879195   -1.49598187857972
H           0.19964203578353    1.05462750299820   -1.81563785115917
O           0.21129437070414    2.79682466758353    1.28275863102933
H           0.35361136975470    2.04137292951036    1.89138677214337
H           0.83258269272893    2.66770925136243    0.54789863391079
H          -1.13743811279792    2.28070825344689    0.62371957901229
N           0.79324498574688   -2.69797395597965   -0.30593453429236
H           1.33884411121239   -3.49185721321465   -0.62355200262500
H           0.51025733095893   -2.75884257380294    0.71310713959150
H           1.34042642991115   -1.79889148476443   -0.23554889732434
