    26
        -50.46456599  Gyration_radius:  2.39511060583 Dipole_moment: 4.081
 S           0.33955597986675   -1.27441644898173   -1.19610767620477
O          -0.10560446897209   -0.81458666292985   -2.48239285335735
O           1.20300058583292   -2.43547629178719   -1.16002632747509
O           1.24634504736115   -0.13724053174072   -0.55782231147570
O          -0.78626682122323   -1.43612685682629   -0.24646723916766
H          -1.84880112562364   -0.29098021373957    0.06024287135172
H           0.91911061793473    0.77106869991374   -0.78453444164875
O          -2.44653865011504    0.46850967027945    0.28264622551378
H          -3.27320584421096    0.08673823319697    0.57983140138068
O           0.44565474572271    2.30653299794292   -1.08416072392715
H           1.00543902574831    2.72241269834991   -1.74147235185956
O           1.84656518218587    0.10242728544785    2.16622069428306
H           1.40854174914355   -1.36216610731245    1.79932918970118
H           2.36209994820109    0.33564376011005    1.38801020560565
O          -0.26675531069849    1.63079446990251    1.57605111223026
H           1.03439707581351    0.66134653414034    2.09478630955261
H           0.04897636486792    2.13164426345931    0.81311289286803
H          -1.11125634056976    1.25012307020656    1.28525176135879
O          -1.65551338696576    1.34669252314783   -2.22617002652306
H          -2.18206397947554    1.12809536105564   -1.44029431908796
H          -0.41182953775686    2.07128232922967   -1.55677160898013
H          -1.19796069361775    0.51832118588392   -2.48274751068818
N           0.98636263336682   -2.25716467835486    1.39006450621848
H           0.02607688056025   -2.00311021289742    1.03487455600029
H           0.99589009004953   -3.03662834223415    2.03901853086346
H           1.41778021256903   -2.48373673546275    0.44952712346409
