    26
        -50.46456601  Gyration_radius:  2.39511311362 Dipole_moment: 4.079
 S          -0.89912694534040   -1.51680136017414    0.25021424004953
O          -2.27978845195816   -1.27890981501871   -0.06808312295592
O          -0.46728137114290   -2.89209382104664    0.38041973618622
O          -0.01977939669851   -0.98124863117458   -0.95917055077004
O          -0.45625070926925   -0.72159934469150    1.41938881236429
H          -0.64986199695178    0.85437535630552    1.53447177441878
H          -0.40421496784177   -0.16226106614404   -1.36536212652364
O          -0.94606710436305    1.20058403606867   -2.08690637768855
H          -1.35433015172001    1.00916308936391   -2.93254575741002
O          -0.71918204897809    1.84368974243643    1.53896314382299
H          -0.74872639261257    2.11075956717822    2.45837376193125
O           2.70563295144151   -0.35632106186489   -0.81552499064035
H           2.27599544773971   -1.33405738182964    0.33806693886078
H           2.17920023094750   -0.69696481886423   -1.54534327812634
O          -2.76377928842097    1.34127178108858   -0.26576064846842
H          -1.70225750800762    1.37604559113475   -1.44554116090146
H          -2.77713272359845    0.36969863908934   -0.13429218856176
H          -2.23474851463297    1.70191828577661    0.46414090550699
O           1.25755614188993    1.85782106796106   -0.42753358980637
H           0.65235628761790    1.84095091260864   -1.17991065403081
H           0.68143460179943    1.96632259775267    0.34641994019976
H           2.29318264231844    0.51742963676548   -0.60666051862129
N           1.78341267476536   -1.89617375551519    1.10496982767366
H           1.06867729038542   -1.25294218963545    1.53911601028543
H           2.42572054999693   -2.31204045869052    1.77081234671172
H           1.09935875264044   -2.58861658889137    0.68727752649408
