    26
        -50.46251708  Gyration_radius:  2.45994379509 Dipole_moment: 4.389
 S          -0.22924662529564   -0.79637231197363    0.58893749749611
O          -1.63433198231922   -0.53326868506043    0.27783746763028
O           0.37806369113535    0.38786586780240    1.24347302486486
O          -0.05218252209149   -1.98395466404997    1.43266792560829
O           0.51277995619525   -1.01741739712906   -0.70356093057615
O          -2.67797292205684    1.87413709917171    0.38815159819171
H          -2.32022466952865    0.95549331582611    0.45300972616774
H          -3.00985767941867    2.08991575173862    1.25998103884057
O           3.04131111684103   -1.68131857959344   -0.46661488942254
H           3.15639941473171   -2.53130909810074   -0.89407244297370
H           2.10996669399217   -1.40943154940764   -0.65845007947146
O          -0.12561911262392    2.42334769541159   -0.29631125312341
H           0.17061497048444    1.74143983074340    0.35910259870064
H          -1.07903325241672    2.52535599995427   -0.10615309438104
O          -0.10565020439347    0.80644551917783   -2.21630897125298
H           0.22502092283247   -0.04602924357484   -1.60175766283647
H          -0.06109822823290    1.59519994914277   -1.52182169435844
O          -2.59554511876510    0.21785311742503   -2.06610772524288
H          -2.36736641513271   -0.29066790241586   -1.25645432041658
H          -3.09040018727339    0.97861251120259   -1.74365049409783
H          -1.09812217347530    0.61406261535485   -2.34988591395615
N           2.23270246686152   -1.19220969302581    2.01692312292302
H           2.82923283007317   -1.41806892632563    1.19077479838164
H           2.70696740834991   -1.29168055597151    2.90664022070325
H           1.79142201408045   -0.25249372281056    1.86473415719650
H           1.29216962744592   -1.76550696351084    1.89891631539657
