    26
        -50.46004043  Gyration_radius:  2.41665673145 Dipole_moment: 2.095
 S          -0.89655919184420    0.27495052581890    0.96108054594429
O           0.04157776375281    1.16716304650592    1.61459527396613
O          -2.24893861826552    0.37163826723134    1.70207111874268
O          -1.12592825139526    0.67005519851643   -0.43676424616501
O          -0.45099476112633   -1.11744074469659    1.01382686164888
O           2.25623846571621   -0.38672043297494   -1.31172575285002
H           2.39878709467719   -0.43917148740707   -0.33480449754691
H           1.60584718396636   -1.10549726873869   -1.49748747354965
O           0.30637885288035   -2.19750266226478   -1.26643962354230
H          -0.06753673045472   -1.79805767209511   -0.44783181168912
H           0.61792781768440   -3.06917041773631   -1.01484307786430
O           1.38195578232612    3.05143700257844    0.40885495945102
H           0.80881628059048    2.45722177573879    0.95377199150227
H           2.24844293465293    3.05426831631261    0.81997479389676
O           2.13985956451323   -0.60013805308971    1.33317128813784
H           1.23658698639327   -0.97526558155750    1.31329037411835
H           2.02779897641291    0.20781954464574    1.84210963820112
O           0.83788183862286    1.62253055320613   -1.64156738222713
H           1.51641846981115    0.77720346081749   -1.57146579208254
H          -0.04605457115856    1.25279137336031   -1.23328205037527
H           1.13789734350526    2.30786040821299   -0.95573550512540
N          -3.24513349327885   -1.19791764407515   -0.11828318991226
H          -2.82554934618398   -0.23010917894553    1.14774167587667
H          -2.85823523021012   -2.12366714629780    0.01046634148905
H          -4.16162468611210   -1.28462673444847   -0.53831585132094
H          -2.63586044547432   -0.68965446861387   -0.75240859872976
