    26
        -50.45442130  Gyration_radius:  2.42980823453 Dipole_moment: 8.081
 S          -1.58561216695440   -0.38305339781643    1.64436739929089
O          -2.15415583048660   -0.47918897639920    0.29113175810805
O          -2.10064692317241   -1.34151284580859    2.56093582369750
O          -0.02849097729002   -0.66599989013628    1.41357107151922
O          -1.58312588895806    1.00763000732310    2.12110755131332
H          -0.64016759721309    1.64442180662760    1.30246549761564
H          -0.05613715870877   -1.32727187302059    0.67549543687288
O          -0.27397212900854   -2.22373142077305   -0.65095810733372
H          -1.22153716327146   -2.05472016250769   -0.55109230932439
O           2.23147504683174    0.61136356667011   -0.28675248282004
H           3.14202426126589    0.89510883571924   -0.37984025789827
O          -1.63118352160108    1.30557647934889   -1.43971993072750
H          -2.45736740954816    1.60483658150961   -1.82059717836944
H          -1.88407970792422    0.59249373552802   -0.76844957613258
O           2.34347960967520   -1.89445438825902    0.60899384632093
H           2.27041926610025   -0.30977649957989    0.07709351906995
H           1.90285179597377   -1.81930353037328    1.46191269316700
H           1.74053222128198   -2.39617658971476    0.04584385400898
O           0.47556593660037   -0.27055908909080   -2.29764193628453
H           0.01381259157207   -1.62633417918521   -1.38584610694174
H          -0.29569658378851    0.31051330702415   -2.19937640380252
H           1.17253426518197    0.11391134135178   -1.74494271483531
N           0.02435449317890    2.09559091624567    0.52004481024379
H           0.87040125875093    1.51206106280196    0.39479246022236
H           0.26974638288428    3.05073660930541    0.75589920556236
H          -0.54502407137265    2.04783860320845   -0.34843793250697
