    26
        -50.45442144  Gyration_radius:  2.42958277932 Dipole_moment: 8.080
 S          -1.55599111114747    1.34037800758983   -1.06882930758314
O          -1.58194897591575   -0.04422059352033   -1.56457577650873
O          -2.84026503222592    1.94247371367050   -0.95856219715754
O          -0.91882402055347    1.19976850562048    0.39140255258522
O          -0.54366252673682    2.13824652671236   -1.77575216991515
H           0.67519204607445    1.59294480242479   -1.34834541853749
H          -1.28503588205734    0.32550484777957    0.68188514784352
O          -1.79050721460648   -1.19215654083256    0.90802952569631
H          -2.17161402144556   -1.14772525967577    0.01981639510113
O           1.73030053282180    0.08689156600608    1.55969757687055
H           2.45837659999944    0.15309262331327    2.17927955063662
O           0.58836335522059   -1.23288280853714   -2.13888904709925
H           0.50192943809443   -1.60732369828889   -3.01611497639793
H          -0.29648038142799   -0.78155182356012   -1.94771146344499
O          -0.48375548460780    0.35890746673438    3.01505796603460
H           0.90640916904186    0.22013128751163    2.09434740588589
H          -0.86928237445575    1.15731185276218    2.63944542212547
H          -1.06202643395849   -0.36459899171504    2.74226958565722
O           0.61275473294894   -2.23717801950045    0.43952168087215
H           1.14676222700493   -1.54332801635593    0.85479308300598
H          -0.96554289112692   -1.72917314595997    0.80316819740192
H           0.66163711079070   -2.07693978633054   -0.51658381215717
N           1.58843638754831    1.01109176368451   -1.05781066975945
H           1.58391590691730    0.83106455852557   -0.03819651567276
H           2.43420418039234    1.49354119695245   -1.34084694145033
H           1.47665465340617    0.10572999499855   -1.55649580403386
