    26
        -50.45442137  Gyration_radius:  2.42974364452 Dipole_moment: 8.080
 S          -1.08569111032047    0.39835014768599    2.00652756451223
O          -2.01513886580442    0.37887764698755    0.86657622563692
O          -1.60141784995582   -0.20431302901086    3.18757032665199
O           0.15966007653552   -0.45876862540386    1.48455191071227
O          -0.49377969123550    1.73205524283508    2.18572366961782
H           0.33091463069448    1.88984150052705    1.06322404208946
H          -0.29155061194740   -1.13646812591287    0.91890360608527
O          -1.15838286778610   -2.02251739952928   -0.11743737185634
H          -1.92902892320492   -1.50818811165059    0.16184412632853
O           2.12891974042611   -0.28422545712631   -0.90667981099362
H           3.01560068680329   -0.36619181677739   -1.26073875920283
O          -1.45371083126171    1.65777419195109   -1.25558762573780
H          -1.72344192527385    1.16060606215183   -0.41704891413486
H          -2.20902878616550    2.19876570349753   -1.48806492756057
O           1.66745491158449   -2.54913671357484    0.41673482645622
H           1.96709856221256   -1.11231552954184   -0.38659757259189
H           1.53764382865603   -2.22980584909423    1.31581745880158
H           0.80002231275765   -2.84983927938804    0.11760736958361
O          -0.31464936215648   -0.66226303683598   -2.24487814325939
H          -0.79196564860845    0.16841564538681   -2.08901660761857
H           0.59650249812249   -0.50594175228475   -1.95430636504614
H          -0.91350506446910   -1.65178537298618   -1.00198458695347
N           0.85427018533688    1.98196841416775    0.07588730609578
H           1.39061289167158    1.11880351773433   -0.12235588046397
H           1.45443483978283    2.79899540569493    0.05540786828622
H           0.07815635360223    2.05730659051734   -0.61167971545212
