    26
        -50.46365712  Gyration_radius:  2.60873422113 Dipole_moment: 6.506
 S           0.60176426579847   -0.10322328013625   -0.30473676420766
O           0.33115272854635   -0.60034468198499   -1.64316978373425
O           1.95837475554141   -0.31056221790313    0.14291899746239
O           0.14608366309413    1.29016311805063   -0.17523024645747
O          -0.35740446200176   -0.90611503421780    0.65942887448485
O          -2.35161570015714   -1.17502361439462   -1.15919158429036
H          -1.79547199402643   -1.56123996973057   -1.84481495668934
H          -1.78364577577042   -1.17906346145907   -0.36770066699940
O           1.56345050361630    1.36297716873883    2.16094710800756
H           2.02655616016294    0.80583666605920    1.51056975359000
H           0.84008656654081    1.72985028447828    1.63861957093856
O          -0.27534476144215    0.83692707226258   -3.75412368551947
H           0.04196633534674    0.20092539905619   -3.06965217180278
H           0.49712408630739    1.33267997030039   -4.02964192076745
O           1.18026869028635   -0.61584051258778    3.94564865603139
H           1.36747857064177    0.18709215496940    3.41109239676274
H           0.30230090497351   -0.49919755510374    4.31118582097454
O           1.36076455537633   -2.29455880098248    1.87580163408088
H           0.23825278806314   -1.55885897939717    1.17002937205161
H           2.03441973660773   -1.85403913160769    1.33604996519605
H           1.37082631476764   -1.83077067474012    2.74637853394838
N          -1.89641397404381    1.37895899652136   -1.71916621016413
H          -1.07513292730328    1.46163992950554   -1.02164077689443
H          -2.29734257755729    0.41848660675269   -1.53950172127338
H          -2.58086482322406    2.11951646818826   -1.61589317691032
H          -1.44763363014491    1.36378408936542   -2.66420701779637
