    26
        -50.44859299  Gyration_radius:  2.50099574755 Dipole_moment: 4.925
 S           2.28522546158927   -0.21992489572417    1.00846564428242
O           1.50792606978094    0.61609737716262    1.89565926780371
O           3.46833747931325   -0.78850981523445    1.53166593014370
O           1.32614194928517   -1.32263989573913    0.46561717143511
O           2.63248387920701    0.58057003464263   -0.26889041082335
H           1.80820107170295    0.73475838125158   -0.81095698631969
H           0.41065754418876   -1.14964417939013    0.89539602371260
O          -0.83855316932378   -0.67754807074813    1.59404044290814
H          -0.36066698522856   -0.18874668456724    2.27531356293868
O           0.54280162770601    0.78267604696147   -1.78962404078455
H           0.79716502888696    1.17868620256369   -2.62481916646841
O           0.11691638272911    2.84104046450061    1.38050563483251
H           0.20914274384411    3.44787149367757    2.11562554592107
H           0.70518149447993    2.08426122610682    1.57377943833597
O           0.10739140879945   -1.73166337124715   -2.04327339817132
H           0.67835726043155   -2.03949884257481   -1.32968999603672
H          -0.82065658409100   -1.79700756294453   -1.69016106088340
H           0.37703954590687   -0.20208241180745   -1.97108269619844
O          -1.54159714899560    1.25621470175758   -0.04446229918745
H          -1.20458762720381    0.02224132952355    0.98218403260755
H          -1.17755275487048    1.99451274949702    0.47617861601071
H          -0.90807223535218    1.15270501584909   -0.77353962255462
N          -2.30894922815196   -1.68321107271207   -0.86848701466108
H          -3.09437906138869   -2.20822020314440   -1.23099137940008
H          -2.57304577030861   -0.70479083458421   -0.83562686730177
H          -2.14490838299591   -1.97814719323224    0.08717361779291
