    26
        -50.44859330  Gyration_radius:  2.50061024685 Dipole_moment: 4.918
 S           2.00164899896340    0.87365247541814    1.23070223163907
O           0.87299356312680    1.68407316688031    1.63021886814966
O           3.15280538852867    0.92449637730712    2.04864112146745
O           1.48266750902292   -0.58913087905385    1.08454313599649
O           2.39786536245583    1.23535911841046   -0.22016919269281
H           1.69425081411902    0.92301843736583   -0.85614362952074
H           0.48354544629975   -0.56805445932142    1.31680595130959
O          -0.96196254939994   -0.29135885464493    1.64193268275300
H          -0.77439251197231    0.53013177771422    2.11259588440184
O           0.69282500145788    0.22422121114769   -1.89047714037097
H           1.01113183658418    0.35699710651450   -2.78499831489100
O          -0.87934943808110    3.03029609617489    0.12466236615543
H          -1.08723261625546    3.86308924668915    0.54936401763369
H          -0.17947718014539    2.61342112366301    0.66545444210270
O           0.96174793203224   -2.21812209735059   -1.15655778579641
H           0.02668436336784   -2.43974247918033   -0.89822935930996
H           0.81957306374079   -0.75992808586106   -1.67751509435184
H           1.42867089075320   -2.05886345456163   -0.32796321928193
O          -1.76307981137318    0.61291933199678   -0.69452535661070
H          -1.71101692075122    1.56186722519414   -0.48193124913429
H          -0.98500521831261    0.45875777877784   -1.25539280181545
H          -1.35363419402132   -0.00537493282345    0.76849361593405
N          -1.58084676287864   -2.51177668961697   -0.33786140256053
H          -2.11498033711358   -3.34921736479823   -0.53109521541293
H          -2.08309940897312   -1.72157384430561   -0.72712687611983
H          -1.55233324129604   -2.37915733176503    0.66657233033419
