    26
        -50.45442143  Gyration_radius:  2.42959428036 Dipole_moment: 8.079
 S           1.79711191891844   -0.44719836221858   -1.38945287490555
O           2.00531758168998   -0.96520236523136   -0.02861305595867
O           2.28530612723435   -1.30096187024982   -2.41749843782010
O           0.20541485044852   -0.34529329478947   -1.50823202713049
O           2.20857173809924    0.96059568552139   -1.49012858204235
H           1.26594632752433    1.64471767518833   -0.71006161020087
H          -0.08189821582550   -1.12773691669322   -0.97148548516807
O          -0.37609541182602   -2.30234010333304    0.09794253632473
H           0.58218888246163   -2.37706064833093    0.20864618788106
O          -2.04819516221465    1.11239791311342    0.04657510221275
H          -2.87126190281131    1.60319810887999    0.05242028584148
O           1.50152750773156    0.50137386732618    1.98354213977540
H           1.73968631191699   -0.10072476282640    1.20641943012527
H           2.26302350642096    0.48536549448397    2.56412367789078
O          -2.49722822018035   -1.03350064361789   -1.46596993864914
H          -2.16569618748851   -1.78276456611443   -0.95511853932780
H          -2.20317107074810    0.33015774201729   -0.54205168704825
H          -1.86589137527950   -0.90535830230881   -2.18162705327470
O          -1.03669439292205   -0.59930618997148    2.03446339432464
H          -1.48697068378024    0.06178004155082    1.48740338180167
H          -0.68641656883546   -1.81278711593351    0.90042230210427
H          -0.15573492555910   -0.23719964790696    2.22167997533934
N           0.55489947145713    2.08709766825849    0.03557443027423
H           0.88490494042859    1.71295108846309    0.94764014578412
H          -0.40386275565995    1.73742270896491   -0.13913612076747
H           0.58521771868361    3.10037680578824    0.01252241259818
