    26
        -50.45331706  Gyration_radius:  2.44705305331 Dipole_moment: 6.621
 S           0.00462525112044    1.48073460777598    1.77704461159662
O           1.11086175887454    2.02631405295631    0.78510474713302
O          -0.65923954757925    2.61959193683894    2.31260185054658
O          -0.90090883013190    0.69401386647949    0.86695765049120
O           0.63028125852057    0.56906880864072    2.70956704772054
H           0.81777363465324   -0.80810947621827    1.99073294662740
H          -0.81894797877706    1.27851018801168   -0.35372695123029
O           1.05579914777977   -1.64275444801260    1.49327982163730
H           1.47473034676140   -2.21780812032256    2.13535297219435
O           0.54303732740800   -0.47121688571221   -2.38508532244506
H           0.62293787924889   -0.88978865265216   -3.24254941307137
O          -2.75494932016191   -1.09113069388435    0.19783794635550
H          -2.16859835444114   -0.38581489913354    0.53504400537925
H          -3.15835479418014   -1.49291225706938    0.96881393036430
O           2.31794061150607   -0.01956837795035   -0.25681399598537
H           1.86120102200762   -0.17763788039302   -1.09747339282450
H           1.66169212591520    1.25831355085273    0.46101728360876
H           2.01513287336905   -0.72592200935681    0.34717856580038
O          -0.46378936508991   -2.18483344714964   -0.75363636518542
H           0.05256361120903   -2.08728624265003    0.06552083196668
H          -1.36818544846664   -1.89439260722781   -0.51883585377229
H           0.12474887285052   -1.16300687933202   -1.77423235632753
N          -0.57411178431293    1.74815132338394   -1.36790991633119
H           0.13630339079914    2.44667513606432   -1.15424875934361
H          -1.39259392580708    2.15837423740753   -1.80309530293391
H          -0.16994975307212    0.97243515865766   -1.93844659197236
