    26
        -50.45372208  Gyration_radius:  2.53235614393 Dipole_moment: 8.096
 S          -0.62174052316126    0.47641332739057    1.14501355202113
O           0.61353546193497    1.26977900685978    0.98417979912092
O          -1.80996798791933    1.26992421187330    1.02268162068922
O          -0.59455248203411   -0.53407207064731   -0.08313286336924
O          -0.54889878136059   -0.38511329831675    2.31357470403130
H           0.92885545613784   -0.78437827168167    2.38778838205819
H          -0.57228157270089    0.09973948312016   -0.85530347330383
O          -0.64247787924410    1.42164820959069   -1.75622114111228
H          -0.42014805373731    2.09966677029222   -1.11044946049256
O           2.86712657021786   -1.73153722436545   -0.03629108041434
H           3.78498211704011   -1.85413290873731   -0.28382692928532
O          -3.02724378064948   -1.50551979425445   -1.05413821546046
H          -2.22734740043336   -1.32675660440448   -0.53651972934098
H          -2.79206034660462   -2.17182092996329   -1.70197661713108
O           2.06627863565255    0.54605048814007   -1.13966036475155
H           1.47635170019992    0.64595468237785   -1.89230693713802
H           1.57055385842995    0.91626505243419   -0.37913120877291
H           2.53780472827638   -0.97020312611194   -0.57297246025117
O          -3.20504971862960    1.25712762922617   -1.31078699417688
H          -1.64117107847333    1.43477166587319   -1.80199802738347
H          -3.41707672330098    0.31053298684474   -1.35675078893237
H          -2.97448240343786    1.40878733729261   -0.37716412444910
N           1.96253266172096   -0.56103794357515    2.18335701821880
H           2.53899161084245   -0.54115306702988    3.01734892841187
H           1.79212073606642    0.38831497807096    1.76567442391811
H           2.35536518453895   -1.17925059035610    1.42901199716922
