    26
        -50.44859298  Gyration_radius:  2.50084100778 Dipole_moment: 4.925
 S          -0.19266451457196    0.19649489287648    2.49194901464460
O          -0.23239754467787    1.53854632197432    1.95582076611269
O          -0.64932269460109    0.01873202307450    3.81730266082040
O          -0.98109751352590   -0.71283826475652    1.50091984408569
O           1.24853176206962   -0.35330940775183    2.37724762381513
H           1.47834519831679   -0.51524380731184    1.41913613114077
H          -1.31252527490025   -0.10203057895472    0.74612081949511
O           1.76697631261027   -0.99110004819392   -0.08120494531477
H           2.61596179767670   -1.43474924638006   -0.11995338740238
O          -1.64404339312247    0.96275430138255   -0.26784259558751
H          -1.53305739437598    1.69227430242302    0.35421843772119
O           1.46999095789846    2.78149825627399    0.31005181093182
H           0.90884836345859    2.35042979075182    0.98481365294471
H           1.54658998974526    3.69988171989199    0.57076467616884
O          -0.16679150029668   -2.64834795742161   -0.37952641448086
H           1.05750880041692   -1.70382632126803   -0.21864900606921
H          -0.67612285623636   -2.40223665469406    0.40145951269311
H          -0.64533614356990   -2.24015206963961   -1.15068471815436
O           0.63740741547175    1.03550689100025   -1.57452669386335
H          -0.83466211252107    0.99603951276733   -0.85259729481716
H           1.00817504674424    1.81755483633657   -1.12762514381951
H           1.12585859488057    0.29242935651167   -1.18341287047433
N          -1.38696894523919   -1.25605236260969   -2.32695592229676
H          -1.78308509005436   -1.70571809158440   -3.14233548282178
H          -0.70250387240215   -0.57797643251258   -2.64311677554428
H          -2.12361537936106   -0.73856098093266   -1.86137369970279
