    26
        -50.45986448  Gyration_radius:  2.67756329604 Dipole_moment: 7.671
 S          -0.45999573226749    0.23820639368472   -0.32142413841420
O          -0.86246146093263   -0.38911629429342    0.94004858813395
O           0.90609554868034    0.73509272838663   -0.29176065106108
O          -0.67310415398626   -0.69740017229789   -1.43517963540248
O          -1.41708911791024    1.43851879636771   -0.52345047965724
O           0.45860895033502    1.71446628048948    2.15057425504043
H          -0.25664729400732    1.07515571377547    2.24681791157283
H           0.90820619319425    1.41492050596505    1.34182693021465
O           1.77561117510381   -1.73448190764415   -1.25608470175382
H           0.91304796671193   -1.37380608832910   -1.53955122678178
H           2.17365331937813   -0.99962412206932   -0.77836297967104
O          -0.09618849282080    4.18645755201787    1.21638447990528
H           0.15463947376732    3.35990214757170    1.68309037310895
H          -1.03210707854700    4.31240032721084    1.38076023941034
O           0.98294757779963   -3.94109407765290   -0.04302645624915
H           1.23005932955783   -4.66863052301322   -0.61642308695099
H           1.41142852725974   -3.13478239896666   -0.42916221398707
O           0.24908815766820    3.21658639558223   -1.25074472235715
H           0.94013484870110    2.55643355180839   -1.10114162487087
H          -0.87515964571371    2.19912922727235   -0.91905331359942
H           0.20984175337877    3.75437074828217   -0.42483348483047
N          -1.35999256851055   -2.70446220760391    0.00128246679840
H          -1.24226169554890   -1.90442145236676    0.69504491499047
H          -1.26900397444692   -2.12115950058917   -0.87276708658048
H          -0.52264924227017   -3.34469254475835    0.06012024322809
H          -2.24670236457911   -3.18796908883468    0.08701538975564
