    26
        -50.45147127  Gyration_radius:  2.53263743413 Dipole_moment: 5.400
 S           1.52017044297767   -1.10309070405983   -1.28680704954624
O           1.03611679223668   -1.34742869680229    0.06113172742475
O           1.39207122428224   -2.19292426564367   -2.18466829597532
O           0.74761508637344    0.15113865285998   -1.81926941003313
O           2.93928177581994   -0.57169714889723   -1.23088126644882
H           2.90833142614560    0.34666215008971   -0.67133079103355
H          -0.22994024179174   -0.05356345003012   -1.83702046002643
O          -1.80955100618095   -0.24909158379226   -1.70771122138860
H          -2.25103215200546    0.06879600734629   -2.49700622634535
O           0.36550339703455    0.81712723805540    1.41713666392327
H          -0.25332637226283    0.53027999212606    2.10343002945562
O          -2.07386705662440   -0.33650886876105    2.30891273988326
H          -1.89531489675644   -1.05079645870360    1.64626485099537
H          -2.53698412690075   -0.75835809774697    3.03262743342739
O          -1.52495475421269   -2.11951505176572    0.41212439999402
H           0.61552774742696   -0.01006086280851    0.95007032929437
H          -1.85115841976300   -1.77140787346419   -0.42648347351896
H          -0.55536465982513   -2.05269464887324    0.34754058818902
O          -1.99103183089903    1.47149973024022    0.22288510475551
H          -2.41493597136844    1.00159233180959    0.95766377610108
H          -1.05124563885088    1.49211549805785    0.49072027711465
H          -1.96267385676371    0.44150474883042   -0.99182819265079
N           2.76289853902418    1.60285754556414    0.05301881620350
H           2.53889770228506    2.32680247109844   -0.61672602313546
H           3.59333282097080    1.86464812695539    0.56728653973519
H           1.98163402963217    1.50211319834341    0.69891913360599
