    26
        -50.45807507  Gyration_radius:  2.42060904613 Dipole_moment: 7.667
 S           0.69573988634233    0.97897535770447    1.84196238791687
O           1.82536494950184    0.84059620661710    0.93411121662665
O           0.97456351453376    1.56786220011923    3.10508331487143
O          -0.38577477805327    1.86622952555794    1.07920392677638
O          -0.01724861913316   -0.32822974169389    1.96840766355380
H           0.23348187089516   -1.64119547392299    1.05485913638550
H           0.10533804532276    2.27383320892883    0.31501067404553
O           0.25913126191016   -2.42220175786560    0.44267818986659
H           0.37862654979202   -3.19280083567103    0.99857117255005
O           0.23337062267227    0.28086515650791   -2.39852715505301
H           0.42795348634683    0.22108083609121   -3.33465822854497
O           1.04076002762831    2.51867981449014   -0.95644892729374
H           1.72249401847584    2.05129193695113   -0.44300715604422
H           0.70660612545824    1.86770307245555   -1.59930873928114
O           2.04857613485017   -0.92824313954166   -1.01121617543685
H           0.98224417261783   -0.19833361530924   -1.92403029252983
H           2.12613623379194   -0.28652722011375   -0.27060639706883
H           1.58591974114828   -1.68630905523515   -0.62143330588960
O          -1.61686642558892   -1.30180910325051   -1.22083311422299
H          -2.15745212689070   -0.49933497091513   -0.01732048629844
H          -1.05104030859544   -0.69229255271503   -1.74107564068330
H          -0.99397866166638   -1.89877510512905   -0.76775913540049
N          -2.30175365751711    0.02443228386130    0.91457682819805
H          -3.12312053282555   -0.29719757904159    1.41499053490812
H          -2.32211144950077    1.03198430355429    0.75984875035495
H          -1.37696008151207   -0.15028375243182    1.47692095770006
