    26
        -50.46564933  Gyration_radius:  2.44839045374 Dipole_moment: 6.107
 S           0.82936370446286    0.07315565385317    0.78039212853477
O          -0.16701511418190   -0.11599681393205    1.81298498577927
O           2.14134075018960    0.46366117893709    1.29693719587690
O           0.92624141316045   -1.08590575065490   -0.10618343757124
O           0.41421903381681    1.28169356066137   -0.10948049126485
O          -1.51835066636939   -1.81972261744084   -0.91120530728863
H          -1.92655599325676   -2.08277381813108   -0.06903542814005
H          -0.57113186509798   -1.72114029862631   -0.69796707114966
O          -1.97516836025745   -2.09118149647672    1.78882397224889
H          -1.26217941027401   -1.42272253408984    1.86405096187989
H          -1.67095017031746   -2.86204584692766    2.26898990240310
O          -2.73835944218965    0.77125279799064    1.56811646812273
H          -3.14689402934415   -0.08380592093852    1.73729651955663
H          -1.80817797873429    0.65712080195366    1.82941836515050
O           1.74479381711245   -0.06785294714318   -2.33763802487033
H           1.46530036493724   -0.60314500497490   -1.54996457977808
H           0.92708659884391    0.23748378058962   -2.73901087293744
O          -1.88289837255840    0.78551120602284   -0.96322683018866
H          -2.39608324804933    0.92297537920910   -0.13526742389457
H          -0.54633753545501    1.11797918076858   -0.48459000231730
H          -1.86082958896428   -0.19951666811833   -1.09002975834373
N           3.03684558538503    1.59434912557305   -0.76847814560606
H           2.72284664760565    1.11229193301544    0.19026583460212
H           4.04707701390719    1.61650397047443   -0.86629473475694
H           2.57514237345072    0.99217030973645   -1.52152858271637
H           2.64067447218640    2.52966085865401   -0.78737560332836
