    26
        -50.45102754  Gyration_radius:  2.44999829663 Dipole_moment: 6.277
 S           1.57676691583260   -0.63392715131943    1.11642274151810
O           0.50406812596071   -1.16882526364912    1.98701133950077
O           2.33631196221249   -1.64988031891699    0.45080863890600
O           0.76099029602985    0.14240148953639   -0.02765862741146
O           2.28634831636214    0.44132808341067    1.77671821738029
H           0.93138710199559    1.36577967638538    2.13101353623095
H           0.42847318120331   -0.59910321931515   -0.60083397887594
O          -1.94220709310351    1.29436381435551    0.43689343118182
H          -2.86073228609438    1.48008425300212    0.63924624037549
O           0.27573430923567   -2.03259509001791   -1.34423086646906
H           1.12289204905914   -2.29271566550531   -0.94885204484752
O          -0.25104473546633    1.75714620224884   -1.95713742700569
H           0.33606832323334    1.45140568216896   -1.25048128643060
H          -1.12123372428195    1.77304376267828   -1.54589947908237
O          -1.72442880719016   -1.33167168672492    0.51924133023521
H          -0.97709915078669   -1.43409158649255    1.14425641028241
H          -1.87423277703840    0.30155858385339    0.37806444272785
H          -1.42648976737415   -1.77598922615426   -0.28444693508765
O           0.62988458191953   -0.37867134487978   -3.43165187491057
H           1.50703372267471   -0.11086168376548   -3.71010956087821
H           0.45096729471878   -1.65854188316414   -2.23394649986306
H           0.21567951437224    0.41765509536812   -3.04094681325292
N          -0.07943672935767    1.25361737601878    2.40977985821667
H          -0.74108205035857    1.49113845962988    1.63179275355481
H          -0.30645511684533    1.72083353725727    3.28127387533850
H          -0.05816346693127    0.17651810397480    2.47367257864548
