    26
        -50.44898250  Gyration_radius:  2.4241281477 Dipole_moment: 7.522
 S          -0.54901047041816    0.36013941079445    1.86758263496199
O          -0.98145663888411   -1.05666893464917    1.80245432480565
O           0.59759507566587    0.56159485742423    2.70517044221654
O          -0.09003653560997    0.67885743227932    0.36890383124702
O          -1.68902686178679    1.23528685150611    2.04594897026638
H          -2.56365309592461    0.66980147446672    0.76232100697779
H           0.82147280957207    0.30828993030877    0.30553294237223
O          -1.13597358954942   -0.76100698460397   -1.87347846147535
H          -1.35209105515550   -1.32339389682149   -2.61916367789352
O           2.29179060925673   -0.35659951184459    0.79827881215716
H           2.00156485830652   -0.16204153852069    1.70649983322216
O           1.13675867129823    0.97622193373495   -2.31000679045151
H           0.27627156450551    0.68600463496274   -1.97464877376408
H           1.61734490545696    0.18258152770755   -2.55452531419529
O           2.65733444671156    2.06136720089654   -0.28984359386690
H           2.08508181036417    2.62623500740052    0.23329726082993
H           2.74463718435529    0.45330931817397    0.48098719744922
H           2.14893808992376    1.83047358947956   -1.09098318172489
O           0.36663112760384   -2.14819766618486   -0.21375855354033
H          -0.53535773125137   -1.29603202524702   -1.28345423597440
H           1.26190333377596   -1.82183583766980   -0.04871174694499
H          -0.11828065918505   -1.93795006242374    0.61223230810403
N          -2.76567103720751   -0.22007876871027    0.22713901735454
H          -3.75376898292764   -0.43959789666844    0.16110599003197
H          -2.19821641391937   -0.86758662157995    0.87573254657107
H          -2.27478141497140   -0.23917343427432   -0.69461277873068
