    26
        -50.45102749  Gyration_radius:  2.44960382034 Dipole_moment: 6.282
 S           0.47053678719038    1.28806297104224   -1.50193698502491
O           1.63572653225925    0.38567872886958   -1.65529844460574
O          -0.45987890235080    1.21351714914332   -2.58869438811578
O          -0.28491152707516    0.68835193393579   -0.21868953867927
O           0.88898051262650    2.59266549431798   -1.03521939740758
H           1.73101962369621    2.04448026308491    0.31432840280073
H          -0.73718369105081   -0.11703404152109   -0.58673702526626
O           1.13766306268533   -0.82231228246306    1.91468643967160
H           1.65285729219387   -1.42526230716611    2.45332877811626
O          -1.44069919790228   -1.16885459250576   -1.60334110440509
H          -1.37397204223740   -0.49346170568266   -2.29702856426626
O          -1.66927270786444    0.12481663820039    2.04412011243988
H          -0.97988207939595   -0.46466309475670    2.36644023610817
H          -1.22609316280566    0.65321869707058    1.36453724234937
O           1.02763888334318   -1.93369097560169   -0.47293438672554
H           0.15214200180452   -2.13686645297784   -0.82565897777054
H           1.34969828436450   -1.19737698394127   -1.03306351233839
H           1.01733295988381   -1.27981986227685    1.03713547556966
O          -3.44772215030259   -0.63447987080413    0.10138507212585
H          -4.00188816822268    0.13969097621279   -0.00909129828959
H          -2.31918393360042   -1.08718188871457   -1.17479533938381
H          -2.90396011967803   -0.46621125352070    0.89777782250418
N           2.33735013218584    1.23756375048127    0.61760272381661
H           2.34116195892786    0.73529678690498   -0.33843149633686
H           1.84891183713410    0.59566369462986    1.28750274714696
H           3.25362780417467    1.52820821795296    0.94207539599660
