    26
        -50.45102742  Gyration_radius:  2.44964811339 Dipole_moment: 6.286
 S           0.30805057021027    1.90777198862316   -0.63122307155995
O          -0.18371086924317    1.36060078638533   -1.91740082025019
O          -0.59770390382225    2.83269861569709   -0.01767638824527
O           0.34734488240006    0.61557556510282    0.32026352536319
O           1.70695076627976    2.26674425970256   -0.72688927239206
H           2.24345789742088    0.77274247729523   -1.28328593899194
H          -0.61178916524977    0.47938084497633    0.54484738968182
O          -2.19032002928123    0.74019043478971    0.81495319673205
H          -2.02447732395124    1.68666452332435    0.67883831111281
O           0.71283069725862   -2.14096072809324   -0.73967329406956
H           0.67101088144853   -2.98666002802945   -1.18932021150274
O           0.79121535432908   -1.36210615943032    2.12210218394305
H           0.94839359511174   -0.55751282518359    1.60695390768696
H           0.68669154033685   -2.04850140926050    1.45530122839044
O          -1.35196776739140   -0.06590067288890    3.23690506803619
H          -0.94527036872977    0.54985209610002    3.84861425004798
H          -2.11960945165378    0.54800723836290    1.77426599244426
H          -0.63562891568939   -0.66194639284925    2.93730435595896
O          -1.51798335127820   -0.89345729155886   -1.38405334035741
H          -0.16681467306845   -1.70265572834435   -0.90692590595528
H          -2.10451620298818   -0.63569390696945   -0.66176210965768
H          -1.16279115672693   -0.04539248167862   -1.72220885006278
N           1.93394769393686   -0.01780731405330   -1.90779704567219
H           1.67049412875962   -0.87776076975367   -1.36870264491411
H           2.58401681437762   -0.20609541685301   -2.66362645202975
H           1.00817833732020    0.44222231463836   -2.21980408380323
