    26
        -50.45260077  Gyration_radius:  2.49768645032 Dipole_moment: 5.351
 S           0.91125271328653    1.65930361893985   -1.31106408169788
O           1.90942344018319    1.13623036327722   -0.34478903650904
O           1.50219203017049    2.26758269715588   -2.45237489950688
O          -0.01413424722070    0.55072533321055   -1.64966907150640
O           0.06047353517445    2.72306564329413   -0.54816899072082
H          -0.37552186784196    2.28131732314540    0.21421315533421
H           0.95423642751513   -0.67540799108149   -1.75869653921485
O          -1.02575631877607    1.61177299118639    1.62054851682056
H          -0.98170802358443    2.26411994832079    2.32192260227757
O           0.48706630373964   -2.42142769484684    0.60023031739499
H           0.27814747907130   -3.28573981143784    0.95524052627387
O          -3.19029061267466    0.09781218306543    0.92106835478304
H          -3.73917323371776    0.64059595519616    0.35267109554476
H          -2.47430003262062    0.67419244738485    1.24580582700829
O           0.99258348761040    0.03124504012772    1.86596522817656
H           0.83193127296648   -0.87919972123574    1.57208570214033
H           1.45393415119899    0.47893476890403    1.12067683600804
H          -0.29206927351904    0.94943422378276    1.80806351600957
O          -1.54335819029979   -1.40802591455470   -0.61094336355631
H          -2.21766395060949   -1.01020104815213   -0.02345387412844
H          -1.12514960185701   -0.65354121658602   -1.06740971440863
H          -0.36145267194694   -2.07514692909873    0.17511747135979
N           1.81769993754087   -1.18012574447840   -1.37372486001212
H           2.22811110188296   -0.32745319643768   -0.88581504552744
H           2.41737056643540   -1.58044377769731   -2.08562050516804
H           1.49615554787986   -1.86961949140923   -0.66187915716707
