    26
        -50.45260139  Gyration_radius:  2.49751507399 Dipole_moment: 5.348
 S          -2.10525155729949    0.76991488170441    0.52431350406191
O          -2.12311573452378   -0.69188492003021    0.26356989076312
O          -3.18817147913557    1.20632093747084    1.33588594828999
O          -0.77602171084989    1.11277133735307    1.08466597116553
O          -2.19137203610641    1.47542282361608   -0.86580000998846
H          -1.41316928312105    1.20065282567720   -1.40002112771565
H          -0.49542853263952   -0.09306942766313    2.05464126776006
O           1.62985139081233   -1.76849098363881    0.82560639115325
H           2.48437117840900   -2.19420309722439    0.89755516436932
O          -0.18318331737865    0.64521784177421   -2.41359150032859
H          -0.53498050982389    0.54902913633778   -3.30042604676628
O           2.14300714424006    1.88755744663075   -1.69764468315631
H           1.95421168766312    2.82595071215046   -1.64440703000325
H           1.33835338686437    1.46363031702875   -2.04854590709059
O           1.87797466603894    0.79087652789062    0.76232223662379
H           2.14120377282406    1.15980512727592   -0.10521809281986
H           0.94984745317770    1.06656925953365    0.88540621887225
H           1.80941304125512   -0.77597521945785    0.76909753827115
O          -0.22138484783620   -1.66717745676289   -1.28041219867407
H          -1.01449187466552   -1.41518026194118   -0.75488366101097
H          -0.10909254703186   -0.28570748009642   -2.03950780102594
H           0.48898211300697   -1.81523763694242   -0.63652597161910
N          -0.57827234717519   -1.14704071627746    2.22074531603822
H          -1.35873049630840   -1.30331311752308    1.51157095965671
H          -0.82265126095493   -1.40016536271181    3.17093539079832
H           0.29810168974043   -1.59627348490551    1.88066823223488
