    26
        -50.45260125  Gyration_radius:  2.49728681824 Dipole_moment: 5.348
 S          -0.22055545777203   -1.87654755759918    1.31483249381672
O           0.79077849960770   -2.08948279838541    0.24866207414929
O          -0.04172417987080   -2.73414429572159    2.43480933047352
O          -0.20703584755387   -0.43681848739065    1.66954611576515
O          -1.61591304811086   -2.15763813725914    0.67322692644675
H          -1.74475042845499   -1.52970561249913   -0.07214834906802
H           1.32600991531347   -0.09558281613739    1.64421405581046
O          -1.95464184925172   -0.58188655883581   -1.45262309389576
H          -2.39700570649138   -1.10631862551839   -2.12249863331009
O           1.84357978744570    1.57582896255478   -0.75839872327255
H           2.19183322207733    2.38119735048144   -1.14140684389889
O          -2.60944799508971    1.94790636235687   -0.65347380451378
H          -3.32005379152483    1.86418342157042   -0.01554995507739
H          -2.44880064591220    1.05362200131720   -1.00673818455322
O          -0.24628139960843    2.05990669225156    0.66109839428916
H          -1.07226571799842    2.18470112457933    0.15093088980370
H          -0.35675324485780    1.20535604707107    1.11940779762320
H           1.01095427543775    1.83856955398739   -0.25023714461783
O           0.57419516538452   -0.63005504386105   -1.93671726412560
H          -0.98910708291942   -0.52997363760194   -1.73072246238554
H           1.05048597369589    0.17391362332687   -1.67579942456059
H           0.71748674717621   -1.27720897207474   -1.20925585063618
N           2.27160695736618   -0.24786847005142    1.16570099254299
H           3.05341378086718   -0.32682337115884    1.80539915407994
H           2.39274532121125    0.49728295617755    0.44789562258379
H           2.00124674979019   -1.16241369153524    0.68984589651424
