    26
        -50.45260090  Gyration_radius:  2.49761802573 Dipole_moment: 5.348
 S           1.03718953056372   -0.32559515729393   -2.02971872488862
O           0.32437814006619   -1.55288906019426   -1.59459702224164
O           1.23850655364487   -0.26428465090911   -3.43598847329469
O           0.29756730404639    0.84167398478639   -1.49101459684791
O           2.42499878033227   -0.33322545572879   -1.31469737921464
H           2.27222342004562   -0.33226403867105   -0.34353258143748
H          -1.19693903167114    0.41478747648419   -1.68957321291804
O          -2.33441495527078   -0.19508227301685    0.98668362167816
H          -3.01193689556035   -0.04511213681837    1.64630769619046
O           2.06985930446858   -0.48521915627225    1.32494452421442
H           2.74977461522507   -1.06940417338541    1.66532135740594
O           1.34926695342352    1.95434805359088    2.32319363870391
H           1.67040760382257    1.07704325599045    2.04470014710066
H           1.97245433012335    2.59448667865105    1.97547881110373
O          -0.83272245672962    1.87664536090334    0.72350042160113
H          -0.34404854352225    1.64469647848169   -0.08886102098429
H          -1.76697955704122    0.64048407421536    0.96599417483564
H          -0.14693383867499    1.97979970174170    1.41415338185191
O          -0.07935613913666   -1.86415221904301    0.99186944390209
H          -0.90289607963227   -1.36706520744403    1.11766495271802
H           0.07202890138828   -1.89574390903576    0.01982081342463
H           1.22013959340520   -1.02367207207643    1.31019003475538
N          -1.92054787816756   -0.37492948943566   -1.65997580262768
H          -2.35031430838591   -0.38143673839547   -0.71094437284392
H          -1.21347308899693   -1.16724775765591   -1.73820088665197
H          -2.59823224777183   -0.34664155950625   -2.41271893553757
