    26
        -50.45260108  Gyration_radius:  2.49759601167 Dipole_moment: 5.349
 S          -1.47485979055167   -0.94791207719171    1.49220010661516
O          -0.39227493352497   -1.90010241750730    1.13797474278470
O          -2.08648738907489   -1.23645546405939    2.74304855072934
O          -0.91426438079958    0.42289785190883    1.41501252843278
O          -2.54867809360434   -1.04707173332713    0.36316052014131
H          -2.12447246673899   -0.80259465193728   -0.48927647108600
H           0.51472605364134    0.23853325466710    2.03461554808666
O           2.49694828129907    0.44799879848839   -0.16903997525279
H           3.28152583313682    0.85842013009780   -0.53325961009077
O          -1.41260701110771   -0.54079369760598   -1.99742495734238
H          -1.80111023133692   -1.14638964333969   -2.63131344984558
O          -1.04084915717921    2.14802762045513   -2.31061662610050
H          -1.20884500042204    1.18788169738070   -2.29334858649199
H          -1.87265615763833    2.57307009140138   -2.09501119231306
O           0.53262579115263    2.10757881341429   -0.10923800841289
H          -0.10177760111853    1.61795534878476    0.44774568006640
H           1.76529711935842    1.14323858160805   -0.21183620085227
H           0.07460544916746    2.23744875407703   -0.96445467091679
O           0.81069361622307   -1.55262865692807   -1.18186100739015
H          -0.50102724340203   -0.90813226029900   -1.78248144669251
H           1.49090939409109   -0.90162574198124   -0.94807474006578
H           0.39446552943986   -1.82573242855706   -0.33273662368588
N           1.38213251023077   -0.38299803931280    2.12764410533947
H           1.78232520814308   -0.40195893671398    3.05831248981182
H           2.05934933005397   -0.10260802629452    1.38722700374199
H           0.89430534057821   -1.28604717723885    1.84303227078456
