    26
        -50.45260132  Gyration_radius:  2.49722747385 Dipole_moment: 5.350
 S          -1.40362880890163    0.39809133936861    1.77968864365338
O          -2.17512761278536    0.20871879685345    0.52507008902519
O          -2.16365800137793    0.12597575534162    2.95021462270875
O          -0.16912804907613   -0.41686969504169    1.67840246640585
O          -0.94457646115067    1.89015302103457    1.80389276194643
H          -0.38464754659437    2.05380113089324    1.01260310073917
H          -0.68735176900005   -1.73553953421293    0.99610583769010
O           0.32583017870861   -1.76762582121600   -1.79828628846248
H           0.80497469487422   -2.21829439535071   -2.49394883765526
O           0.45394833175323    2.43109000510367   -0.40270515676652
H           0.20406208804783    3.31305533488215   -0.68406375159591
O           2.98885837587313    1.43667704486648   -0.17325707115244
H           2.12650061230096    1.87579831107503   -0.29117388883306
H           3.32389467920941    1.72172969809891    0.67855277058584
O          -0.94233161942828    0.73422493407489   -1.74575694607095
H          -1.52697094546256    0.57650717121540   -0.96989445237292
H          -0.02447789071630    1.79511605684943   -1.01811317606178
H          -0.49642969288599   -0.10970614491336   -1.91943473160792
O           1.91391207346178   -1.03334732794539    0.08741389244525
H           1.27181631618022   -0.77978315324438    0.77734180145753
H           1.01475220737212   -1.47958149218907   -1.11799126276444
H           2.42610490061251   -0.21976239018933   -0.09623273798100
N          -1.34049464483739   -2.17068933164503    0.26850922746302
H          -1.78451619067776   -3.03029139880740    0.56949691636716
H          -0.81145168631736   -2.26422168776670   -0.62404242139721
H          -1.99986352915698   -1.33522621709877    0.20760860219104
