    26
        -50.45260130  Gyration_radius:  2.49748822927 Dipole_moment: 5.352
 S           1.49723981722555   -1.73070674871648   -0.24943716007467
O           1.71424398610947   -0.68632716949519   -1.28238054421054
O           2.65039906581506   -2.52651260190190   -0.00708570270295
O           0.97904363216208   -1.06131995615420    0.96791386295470
O           0.34531945581815   -2.64634171874498   -0.77136190034172
H          -0.45816865273403   -2.09320209242160   -0.89286458059536
H           1.83416029530311    0.25609137826611    1.02177056274664
O           0.05423370215938    2.52445788104400    0.29850481363364
H          -0.31659825553219    3.37978807718991    0.51654940271500
O          -1.81938817495875   -1.16699735069474   -1.26549658833467
H          -2.21942886702553   -1.51332188320138   -2.06517016894342
O          -3.09436851717431   -0.55686440181173    1.07299435703389
H          -2.73057741155966   -0.79594868547302    0.20073887442483
H          -3.18621861483870   -1.37608265805878    1.56232379581059
O          -0.34128770884215    0.84087074201493   -1.91112179603668
H          -1.34060219180150   -0.32413842420391   -1.53441106715113
H          -0.27898588698961    1.53173914800472   -1.23295157688837
H           0.47165032989692    0.29432630204919   -1.81595156341641
O          -0.83920639635287    0.70319347268858    1.88034864789850
H          -1.73670240530798    0.37474343168615    1.66924415860784
H          -0.23981718948930   -0.03599553473310    1.66393553778655
H          -0.36798112989311    1.86073110430059    0.93214017462381
N           2.29236220998850    1.05098269144955    0.47034585160046
H           1.61491836129058    1.84091731907980    0.42095239420760
H           2.30875831059955    0.53473432576166   -0.46204928378491
H           3.20700224611406    1.32118335200487    0.81251950839940
