    26
        -50.45260125  Gyration_radius:  2.49755661997 Dipole_moment: 5.348
 S           2.03552149652125   -0.70358774321581    0.81243301495053
O           2.02392977576519   -0.70808717531906   -0.67285586624360
O           3.34407612600795   -0.60654091099573    1.36039115984454
O           1.12636074464855    0.37482499434158    1.26809578255577
O           1.38757883186396   -2.04832137412296    1.27020936317556
H           0.46822125897571   -2.08107268118844    0.92355663394017
H           1.43831228502576    1.53724018236993    0.24830686065089
O          -0.89535617042914    1.78309998258149   -1.57742214835953
H          -1.57399269902407    2.33247344356062   -1.97019014308056
O          -1.05864296148656   -2.25939524052870    0.22642069840440
H          -1.17751991908252   -3.17734903033988   -0.02398001357070
O          -2.82272738251236   -0.69574849547955    1.60881100423296
H          -2.69799151954373   -0.88827278278103    2.53959960106719
H          -2.26289999715222   -1.32603056306602    1.11925055157144
O          -1.31881925644854    1.45231571413321    0.93794048912387
H          -0.46978065307625    1.05867462226414    1.21513349796834
H          -1.14795871982755    1.66824044880090   -0.60610340626274
H          -1.99583795806113    0.78116207300617    1.15956735831031
O          -0.31685320654700   -0.94827237108776   -1.86265692156935
H          -0.61195688001551   -0.02455805454043   -1.88886297767377
H           0.61239358994590   -0.92597087429085   -1.53920420637664
H          -0.87788273145304   -1.75796360912935   -0.62676603152444
N           1.66313926977218    1.79804629117847   -0.76390586206406
H           2.35702398316747    2.53011039997405   -0.86011639123431
H           0.76532035529009    2.00647719759990   -1.24988176847619
H           2.00634233767534    0.82850556628659   -1.04777028937034
