    26
        -50.45260114  Gyration_radius:  2.49759726009 Dipole_moment: 5.351
 S          -1.61130282658767   -1.49726196107566   -0.67963209922474
O          -0.56953297053221   -1.32736830142087   -1.72440126059498
O          -2.30678736713176   -2.73348827801161   -0.78000718949384
O          -0.96625744070336   -1.29136613913848    0.63921372541799
O          -2.62504360085459   -0.32377963778028   -0.86124158085064
H          -2.14073891922258    0.52318211072487   -0.74050385063977
H           0.41659368665549   -2.02329546049934    0.45885408440445
O           2.52675465527519    0.06306628981708    0.28476438494375
H           3.35495342353740    0.42100608862495    0.60498455116828
O          -1.33124074326577    2.00383517322517   -0.69753227832284
H          -1.72014039623121    2.58711413222424   -1.35175855753559
O          -0.77556478910566    2.60738200208998    1.90901429383664
H          -1.00396576007552    2.48796055033367    0.96881886377475
H          -1.58915171496427    2.49116935701331    2.40249929912876
O           0.77657683876159    0.93965095444229   -1.72585430668892
H          -0.45745936305279    1.69120731650598   -1.08606364172288
H           1.48284654149041    0.74158389203915   -1.09099147002084
H           0.29881378187056    0.09161664699506   -1.87203862129143
O           0.66851982275678    0.32276648393759    2.04418900297867
H          -0.02587590652669   -0.24544338204770    1.66017324671574
H           1.84324273144311    0.23392331083865    1.00859796756900
H           0.26863870112532    1.21454627954842    2.09659220694170
N           1.23398696730272   -2.24047571525479   -0.19613511562925
H           1.96795076889985   -1.51636578572187   -0.04602119808123
H           0.70401865969044   -2.03087271394589   -1.09748243758513
H           1.58016521943223   -3.19029324347016   -0.12803803919356
