    26
        -50.45019007  Gyration_radius:  2.49717897565 Dipole_moment: 5.272
 S          -2.40748441232570    0.08896544178487   -0.18223679170508
O          -1.87126836541921    1.17597572200021   -0.97027161148212
O          -3.74371623508398   -0.29817819018723   -0.43427080805573
O          -1.43282433959846   -1.12016878515208   -0.35572306838081
O          -2.24653593961160    0.40585388226416    1.31769089621537
H          -1.32370445926204    0.74888944370823    1.51654784843254
H          -0.94367159115625   -0.96377016860684   -1.23549040625722
O           0.10915510778336    1.25573922905909    1.93103007388863
H           0.15478761219784    1.31934726857556    2.88637630461711
O           1.91449781558687    0.71961294433443   -1.39027797794953
H           2.65037252798735    1.08562359916929   -1.88228229798050
O          -0.27726003351264   -0.39822860450623   -2.48566907532715
H           0.60671263666211   -0.09565225146179   -2.18199431211556
H          -0.83990085864697    0.38923828309409   -2.48143056813233
O           0.34922393406109    2.59775427751892   -0.47541895083704
H          -0.52285325560165    2.25118969614365   -0.74354309059152
H           0.37341097210132    2.46782508296968    0.48295064128144
H           1.37831984159617    1.49780664063070   -1.06050603721972
O           1.90485564541269   -0.39897157925219    1.15197263405129
H           2.05399750548187   -0.13000671621720    0.23069629581124
H           0.82616848467634    0.58940434637578    1.65603060358395
H           1.50537035794942   -1.30281597580586    1.11288339593995
N           0.62417273822710   -2.77027490885505    0.94905710453667
H           0.99846039347585   -3.43066354842210    0.27942836278785
H          -0.24451180962296   -2.40499517697538    0.56886879546145
H           0.40422574665089   -3.27949997219253    1.79558202942999
