    26
        -50.46337670  Gyration_radius:  2.51269810271 Dipole_moment: 5.163
 S          -0.15050386737857   -0.20211514717533   -0.99737660139791
O          -0.49482622805482    0.31802539645638    0.44183043056652
O          -1.09193430634959   -1.22042936900029   -1.36437986784656
O          -0.19354197914546    1.00211760280478   -1.82253629913226
O           1.23398125160444   -0.70762335026204   -0.89535365673950
O           1.05860703803660   -3.00285221133959    0.42204731011618
H           1.96136619065136   -3.24167687713082    0.63834067736474
H           1.11325562737627   -2.22946513301703   -0.17794176819707
O           0.82978973786398    2.63633641513280    1.31064537664269
H           0.10102336250408    3.01914479726259    0.76565017313145
H           0.45516198245846    1.81112136423609    1.64192902287098
O          -1.13031378148170    3.08011891878562   -0.43739789892123
H          -1.99853224297651    2.86296075028405   -0.09351105764864
H          -0.88233624824853    2.32962832073818   -1.01858369133880
O          -2.72851530851662   -2.60194201717714    0.21142521100461
H          -2.24506498573908   -2.07171926203074   -0.45585579996166
H          -2.61376810745164   -3.51562828681800   -0.05715645097605
O          -0.82320424999297   -1.73721287278086    1.86614762464093
H          -0.64559149835086   -0.49370720034741    1.05832478794335
H          -1.65290971158498   -2.08424439111269    1.46643807146857
H          -0.11847405913854   -2.31616122314402    1.50962949908617
N           2.05733565103983    1.70072552454259   -0.80142634776946
H           2.01691890602560    0.63855341300897   -0.71926248034551
H           1.73127224890820    2.14273485922274    0.12061100796923
H           2.94376969747479    2.06184250983805   -1.13661389256412
H           1.26703490045474    1.82146746902480   -1.47562337998332
