    26
        -50.44731982  Gyration_radius:  2.52110033233 Dipole_moment: 6.580
 S          -1.55124162754931   -1.00723656493882    1.62647892135390
O          -1.46816361027198    0.36226381682633    1.18020699272742
O          -2.67413059596124   -1.36376064875475    2.40845223195497
O          -1.44398914501405   -1.90340511115080    0.34303355668115
O          -0.25903108703040   -1.39108306559520    2.37448003883540
H           0.54823402614168   -1.13316728557380    1.84081763956099
H          -2.00550080671819   -1.40380250886647   -0.34167445841106
O           1.87343344106731   -0.94457625088110    0.96761222083705
H           2.47071517027597   -1.64637902287941    1.23547193452583
O          -0.35765790320350    0.48055279862077   -2.39932320249829
H          -0.25022322016643    0.93837175751159   -3.23340694161261
O          -2.64679565515488   -0.31965808621936   -1.22223014231233
H          -2.69327550018623    0.35606817463877   -0.53405518029930
H          -1.90589298401868   -0.04847337569806   -1.80817938952895
O           0.82979248651325   -1.69810291983613   -1.28536014891991
H           1.55093294391587   -1.19093011004391    0.05067968599857
H           0.04523039208554   -2.10863910219740   -0.89725074662818
H           0.49765563446812   -0.93672927217637   -1.79877503727704
O          -0.19855091963660    2.14187805879715   -0.44476551658273
H          -0.24574877333169    1.17429294979033   -1.67281612211519
H          -0.69881806584631    1.64849908741170    0.22600882229955
H           0.71671244120036    2.20004524821365   -0.08154839728651
N           2.25160881924456    2.01928536786011    0.71745861246364
H           3.11087823064549    2.24369819857531    0.23257516557896
H           2.24862476153289    1.02243198869988    0.91292241812595
H           2.25520155700373    2.50855586786037    1.60318705256831
