    26
        -50.44731985  Gyration_radius:  2.52074362212 Dipole_moment: 6.569
 S          -0.34817314538594    0.27022241393894    2.42123195289630
O           0.62806553566092    0.90595155392240    1.57011996248417
O          -0.47253567876791    0.76342198752715    3.74056712364840
O          -1.71753074774387    0.33553141903479    1.65820022352417
O          -0.09400528378366   -1.24973599710436    2.46095354909533
H           0.00652297158464   -1.61631358801465    1.53426147167280
H          -1.71536061074176    1.26608105084123    1.24870116368790
O          -0.02678244489449   -2.30888581077884    0.09484473910017
H          -0.39921494352335   -3.18328026681221    0.22805280866962
O          -0.80418716518953    1.42511956481983   -1.85610906628171
H          -0.79376697975146    1.84016732304362   -2.71896230002873
O          -1.31797698623916    2.56613962274639    0.53135411555184
H          -0.41406285846572    2.59605365283090    0.86954080408270
H          -1.23944252000328    2.28172676429755   -0.40611318580960
O           1.59228594541943    1.16615810694856   -0.96375529662127
H           0.16102609618822    1.31410651589219   -1.57778332036096
H           1.40519509613562    1.13214316437062   -0.01109640244020
H           1.97471809045049    0.28179815720257   -1.17485649960349
O          -1.93684602226026   -0.84517124550530   -0.87527981345371
H          -2.23713103316230   -0.50069594475830   -0.02330395749191
H          -1.58658848820723   -0.07279838381751   -1.35924384645263
H          -0.73480985713927   -1.77516442106938   -0.37367954505822
N           2.46959851914678   -1.38300395035839   -1.28369317824141
H           2.58250760156073   -1.82636699852421   -2.18618796375124
H           1.70423561565380   -1.84183121715758   -0.79829267327166
H           3.31425931345693   -1.54137345350722   -0.74947086554627
