    26
        -50.45331704  Gyration_radius:  2.44706050825 Dipole_moment: 6.623
 S          -1.17177390313211   -1.46845113428219    1.34928704214619
O          -1.59188904862847   -0.02681983175526    1.84972889759625
O          -2.34156360741438   -2.27649793943292    1.40701710619708
O          -0.74700331240320   -1.21689970600027   -0.07314746757105
O          -0.01909435511348   -1.90242731557933    2.10768693192918
H           1.24764944916715   -1.20774838757798    1.50631654295436
H          -1.46701924950692   -0.15259093766398   -0.50592878440521
O           2.03435607937417   -0.66636278052728    1.20850716001840
H           2.77453025374260   -0.97159632784405    1.73522742268100
O           0.23418206422518    2.28364817370771   -0.96700106366933
H           0.53263320145770    3.03964367672331   -1.47318743074231
O           0.46297581585508   -1.69845176197267   -2.39208416855886
H          -0.03756431718887   -1.65011556728664   -1.55415423845793
H           0.87107582227407   -2.56550202146234   -2.40867267314828
O           0.50194928219048    1.49845258812168    1.71513133835515
H           1.20139532868534    0.82414646072081    1.60784643215058
H           0.43140462719656    1.94396154391055    0.85670533000064
H          -0.77443947316246    0.54402131178957    1.91347388187029
O           1.89380553055544    0.35877311268447   -1.35699410410458
H           1.44469039472003   -0.33674201916626   -1.87858741922861
H           0.89467732722708    1.53973803384137   -1.15961559414320
H           2.03326463196078   -0.03614867281966   -0.47849225034056
N          -2.01006635482729    0.82971534270658   -0.72776819344615
H          -2.49343846197307    1.04921837267445    0.14197913453956
H          -2.65139461245187    0.74051018751735   -1.50771604831488
H          -1.25334312283295    1.52452560897786   -0.91555780430769
