    26
        -50.45860920  Gyration_radius:  2.40815780199 Dipole_moment: 7.096
 S          -1.73036779610532   -0.51525967150376   -0.76109549801248
O          -0.57443074037898   -1.41120932555993   -0.96382059586217
O          -2.63493997033581   -0.98108318061962    0.24667765415215
O          -1.08479223275310    0.85183700676006   -0.21617462023488
O          -2.28222931331384   -0.10316484136926   -2.03576350295303
H          -0.91321800372204    0.25437909840757   -2.83384205741565
H          -0.91589115668200    0.82265566801617    0.75016608888701
O          -1.10776988261407   -1.48946851210927    2.42988489915046
H          -1.75306194079144   -1.45145899817585    1.69848477677056
O           2.10143351755340    0.54826994745339    1.01554237542676
H           2.96957494520483    0.50836483340392    1.41858228002032
O           1.23203006525886    1.84881526183542   -1.26338437077003
H           0.34240104494339    1.93043289490829   -0.88800385732317
H           1.73682889782474    1.39702077579924   -0.56239257258440
O           1.13988084336163   -1.82917912977146    1.01037409616304
H           0.59265928730357   -1.84033111883956    0.20094397353033
H           1.77159058844531   -0.41223670604219    0.98136302175322
H           0.46068291704977   -1.85865371373290    1.71936567072890
O          -0.18761096600771    1.20403481003374    2.26182877021418
H          -0.23900567125830    2.14154918384910    2.45433094357897
H          -1.01778198694310   -0.58532651208403    2.74894695145668
H           0.71889144009072    1.02721457921956    1.92259998553711
N           0.12710761801666    0.05496258060478   -2.88688246712080
H           0.11740398737682   -0.75729472872761   -2.19232631970515
H           0.68199781753909    0.83207534844760   -2.43779675633203
H           0.44861670094036   -0.18694552020338   -3.81760887906475
