    26
        -50.47166893  Gyration_radius:  2.41819265005 Dipole_moment: 3.978
 S          -0.66071214805110    0.28211272625303   -0.59168888346678
O          -0.14998235649122    1.34970802239716   -1.60870463561476
O           0.53618995608949   -0.39477820921124   -0.07670853562849
O          -1.31155486372511    1.06413669812959    0.46025578225066
O          -1.55621609968338   -0.63379367319473   -1.25445775202128
O          -2.16045303365694   -1.26763970780522    1.52094593008350
H          -2.06235256466686   -0.36787392604462    1.16940056039541
H          -2.37111598786701   -1.80571615878651    0.75405730058898
O           2.02309005025192    1.72796544884461    0.40073171273746
H           1.76202049751547    2.33208731090085   -0.29843898081477
H           1.62987156934996    0.86489897086110    0.14640177959290
O           0.37923628157224   -1.19221560658584    2.48418935163862
H          -0.56850584924589   -1.41954715180053    2.43130459027752
H           0.64411457523693   -1.12935540517932    1.54693167932212
O           0.33353384143466   -2.22391152746719   -2.17824834685461
H          -0.50480500790938   -1.81813227558937   -1.87428376680900
H           0.93257112631935   -2.10842057498678   -1.43372280828614
O           0.65482565406032   -0.04781364241153   -3.62642622799356
H           0.65724402159425   -0.94588281552182   -3.20403087096684
H          -0.03614594459709   -0.07110649187648   -4.29222052846283
H           0.18982227457533    0.86987608441949   -2.42059930721110
N           0.33436922397263    1.41638079540805    2.43202199030346
H           0.14386910172622    2.01392797380647    3.22813929567194
H           0.43194650754583    0.37986636169910    2.68772263895690
H          -0.44818570667378    1.41737717162934    1.71126096964070
H           1.17732486130044    1.70784959209834    1.88616705268049
