    26
        -50.45860923  Gyration_radius:  2.4081739425 Dipole_moment: 7.099
 S          -1.35813577869381    0.03945752452986    1.41153462465708
O          -1.73679633883620   -0.47830162696843    0.08178178219044
O          -1.14626704584743   -0.99419428499386    2.37979695340256
O           0.06050051797198    0.75539942358666    1.17181607853797
O          -2.20342476772400    1.15697868858283    1.78019378404906
H          -2.19694067853978    1.98731878949649    0.38485027323478
H           0.80567641225399    0.11710354745706    1.18974939233284
O           0.58387451327425   -2.73847474363762    1.23004418658742
H          -0.11353563494070   -2.25979399758116    1.71713017004283
O           1.66846462569226   -0.16606695422749   -1.71295513511817
H           2.18258734887583   -0.42771901823298   -2.47776389600129
O           0.53586989931964    2.26712302772618   -1.05234236233334
H           0.91832940728710    1.48680980715711   -1.49416991330041
H           0.61780093420756    2.05903533585706   -0.10946093105237
O           2.36133110216654   -0.53981876783632    0.85709712629682
H           2.25196028795022   -0.42811167381411   -0.11426101388301
H           3.06204072241787    0.05359218411795    1.13218412563561
H           1.39813775519005   -2.24884248085805    1.38713755306945
O          -0.05475662841526   -2.01306630293605   -1.26962271468963
H          -0.81298253106244   -1.51866813212055   -0.90164476467091
H           0.96453633301270   -0.88943153679536   -1.59634225462071
H           0.26504598968569   -2.51344548868660   -0.48717534521540
N          -2.07034542606156    1.90329804225719   -0.66496149261441
H          -2.05554979421193    0.83504353602898   -0.68727524330001
H          -1.10844361754557    2.22660010182887   -0.95447453813896
H          -2.81897760743761    2.32817499005779   -1.20086645510933
