    26
        -50.45860911  Gyration_radius:  2.40822128336 Dipole_moment: 7.098
 S          -0.29476947177587    1.45734761520822   -1.27604039187531
O          -0.86161293428827    0.12808606816017   -1.57872876894602
O          -1.27012468811895    2.39072983436540   -0.79817465816192
O           0.72901701220531    1.18855142177227   -0.06687260183252
O           0.59447994294077    1.88305945938163   -2.33774469530919
H           1.42944495752939    0.50989622294441   -2.57392487686996
H           0.27642969342866    1.16429696843494    0.80363185003398
O           0.24781770287921   -1.77200207225059    1.59580160640296
H           0.12326821374721   -2.56030155721834    2.12572993435612
O          -2.55540283693316    1.13815520094644    1.23542887284590
H          -2.25623878524337    1.66057761911804    0.46704673973631
O           2.34774333780372   -1.01113017753018   -0.03311094046170
H           1.68224918520134   -1.48477585921717    0.49890758400446
H           2.14870488163744   -0.07711311501897    0.13082507808553
O          -1.94961742985286   -1.31893796772006    0.35350599682904
H          -0.61855645515455   -1.65057759154913    1.07900556067607
H          -2.37793865825975   -0.56094060510517    0.80828562722842
H          -1.64701230346703   -0.91302459417094   -0.48218766982218
O          -0.00454502131195    0.76276731400175    2.45320683187327
H           0.72552019948207    1.02932928931836    3.01407362702365
H          -1.89690016194090    1.28089467480517    1.92347288681478
H           0.09697587130524   -0.20117930235577    2.28423585963987
N           1.39417084494295   -0.54523004493288   -2.47208971473177
H           1.93273479912102   -0.85870049034429   -1.62050304205745
H           1.64642967918588   -1.04482949914288   -3.31761656332642
H           0.35773240493116   -0.59494881191198   -2.21616415216518
