    26
        -50.45331706  Gyration_radius:  2.44705538041 Dipole_moment: 6.622
 S          -1.32455743270560   -1.86725266084232   -0.33142113317091
O          -1.87102175379656   -0.78949537882156   -1.35363615939136
O          -1.37690493001874   -3.12347215677549   -0.99745630784111
O           0.09645619726803   -1.42308240189674   -0.10628350968621
O          -2.05368517668308   -1.73627532897447    0.91091005320796
H          -1.45386522771273   -0.52625543108979    1.70114971519887
H           0.48853861322372   -0.80100009500510   -1.24508560540740
O           0.90574702130023    2.15282352365269   -0.86533651404274
H           1.39406937635864    2.97099121032290   -0.96005333156047
O          -1.16012764808827    0.32167280608900    2.14335058149426
H          -1.66758518032442    0.38143629883316    2.95413054519596
O           2.44538689477385   -1.25071063922849    1.12852256011399
H           1.59910227351487   -1.45366619237223    0.68401658942338
H           2.49294293393531   -1.83258707905691    1.88864193212501
O           1.37343523110390    1.21413850106722    1.48238343862694
H           1.90782020506604    0.39976590466638    1.38909045374640
H           1.12856373023946    1.79965754016779    0.05789120555685
H           0.50849288311996    0.91146084097821    1.81008803026689
O          -1.74914430181459    1.52961611976751   -0.19861366641454
H          -1.61300555285545    1.25445136458648    0.72938119818876
H          -0.90468643442265    1.90839637048047   -0.48801538171458
H          -1.93901181637042    0.09225994801440   -0.88852673353126
N           0.67564799290845   -0.17452617185641   -2.18420645326467
H           0.85458606400199    0.79367531988129   -1.83618741608644
H          -0.20619845653526   -0.21762745690686   -2.69282283534033
H           1.44900449451403   -0.53439474568083   -2.73191124569385
