    26
        -50.45860915  Gyration_radius:  2.40814861899 Dipole_moment: 7.097
 S           0.12870810597624   -1.34851999024767   -1.41619607085509
O          -0.99202067543564   -1.43472113956263   -0.45877886763918
O          -0.25703012503603   -0.81794022876693   -2.68921994329463
O           1.13885253153137   -0.28915372738573   -0.75316393624031
O           0.91007772295815   -2.56823946387410   -1.39341312960709
H           1.02847602214900   -2.79775116679724    0.21168166330570
H           0.88183524924588    0.63832180682654   -0.94495333082968
O          -1.56772276695316    1.49644178513235   -2.15689556437397
H          -1.21718446777485    0.64592666012487   -2.48326800265962
O          -0.24693736751568    1.69975064692004    1.67250334156256
H          -0.59700593964449    2.31479050437211    2.31815490200576
O           1.65097061911910   -0.29317649825949    1.92954097443670
H           0.95385628486522    0.37614145157531    2.05778686890249
H           1.89798944499567   -0.19029855571280    0.99817412338108
O          -2.22765354433425    0.76789147653309    0.33622439310179
H          -2.20626081266147    1.20894768000515   -0.54119423690264
H          -1.93541516626028   -0.13853766261873    0.11782531477573
H          -1.05692358442118    1.31129693905275    1.19775034561992
O           0.75620132702630    2.34204429237632   -0.73709497727684
H           0.40728631140502    2.25165672549710    0.17837708234308
H           1.61874767516974    2.75485246847129   -0.67087636564397
H          -0.80002420158343    2.05985471868938   -2.01346677431876
N           0.56725333742714   -2.59170065159510    1.14403919824420
H           0.42811178941955   -3.41432710440739    1.72027541311789
H          -0.32837421324787   -2.17753082022656    0.73280926556204
H           1.06418645357587   -1.80602014609337    1.64337831327062
