    26
        -50.45860915  Gyration_radius:  2.40817608882 Dipole_moment: 7.096
 S          -0.54444121152398   -1.52538313686135    1.10326953118923
O          -1.37480742279734   -1.16639163318134   -0.06367769401503
O           0.28689026625827   -2.66855705957019    0.87328603602404
O           0.43405991036280   -0.26582167639649    1.29904103005227
O          -1.33344937893136   -1.48838179955293    2.31775415357111
H          -2.12933158361123   -0.08871909588526    2.09458572289655
H           1.21662536085957   -0.30912326031595    0.70850612784806
O           1.61245514042738   -2.16334616933709   -1.43873956590737
H           1.13350566592309   -2.51756708751719   -0.66549148272211
O           0.70293963209952    1.78935551629070   -1.43243911716581
H           0.85391710125343    2.36531790636619   -2.18284576482292
O          -0.46672692950122    2.29732796728757    1.01994486546605
H           0.07491618908373    1.60706669156138    1.43130145414499
H          -0.17932130330771    2.29047892525067    0.08842295087957
O           2.54699284478126    0.24534776049994   -0.23213337583405
H           2.29335132696457   -1.58254253882801   -1.08311896336317
H           1.98837761046736    0.88341799633146   -0.73088275719227
H           3.16181921506044    0.75947352687269    0.29365311445864
O          -0.22367972533893   -0.42688769292755   -2.33061239679807
H          -0.81289685101915   -0.72438014160533   -1.61015091659968
H           0.28900449574209    0.94414848486129   -1.81543339850720
H           0.50955373994244   -1.07852809713250   -2.28014599886078
N          -2.47928648900486    0.59176922357631    1.36045546896385
H          -2.26175248664837   -0.03314050056573    0.52084716727455
H          -1.84087122631044    1.42903090029092    1.28960914616572
H          -3.45784386121845    0.83603498045285    1.46499464285580
