    26
        -50.45860917  Gyration_radius:  2.40815970591 Dipole_moment: 7.097
 S          -1.49449076456051   -0.93256385296749   -0.85811672929158
O          -1.78621885629137    0.25129713691243   -0.02542092459385
O          -1.55147366031066   -0.66153910369668   -2.26317387678619
O           0.03195627506067   -1.29715715328683   -0.51235604807787
O          -2.20425984388468   -2.09209193242366   -0.35735405803299
H          -1.91216846146029   -1.93656370446489    1.23339043637936
H           0.66834848082306   -0.75647178588930   -1.02803773322647
O           0.02802132406275    1.50743024317373   -2.66031306931864
H          -0.64414696520991    0.79974490445263   -2.64777372427273
O           1.81691896722224    1.22793162471386    0.96915748295762
H           2.37381452567499    1.91605736562532    1.33531547958325
O           0.98177095636914   -1.17690918971016    2.04548652520749
H           0.92136441417430   -1.56339760400203    1.15898979068670
H           1.29531813437829   -0.26889545543056    1.87973776405880
O           2.13950985890736    0.04420018577018   -1.42218503714219
H           2.16337843499722    0.52294990901674   -0.56296666972508
H           2.88070912463485   -0.56356690276722   -1.42723816037438
H           0.88109406935984    1.06068764316478   -2.65304326352241
O          -0.19893950926049    2.36800799487352   -0.13253553460208
H           1.00569736624219    1.70684481962651    0.58834786913954
H          -0.05027570861505    2.32450232947493   -1.10250179892156
H          -0.91479395204219    1.71537937452418   -0.00473052819318
N          -1.67689929923719   -1.24161809067770    1.99921076008186
H          -0.65082761113101   -1.28311442180019    2.24204463712855
H          -2.28718954389172   -1.30317345307478    2.80662287052393
H          -1.81621775604591   -0.36797087110036    1.39944355031580
