    26
        -50.45860913  Gyration_radius:  2.40823425253 Dipole_moment: 7.098
 S          -0.15676074687988   -0.47657422776492    1.89397635185073
O          -1.15388224375652   -1.01187695200388    0.94583603246403
O           0.82799058686171   -1.44154937542400    2.28112947164646
O           0.60836482074694    0.66782609550871    1.06480009919167
O          -0.80876095946477    0.28922775223634    2.93696731913742
H          -1.84991410061251    1.15513925171146    2.04184239025439
H           1.31948444740527    0.30137214508973    0.49625340483151
O           1.79812547055800   -2.47335592006914   -0.03239006104621
H           1.47028111655929   -2.27113660544602    0.86446266228930
O           0.23230447280171    0.47390520897848   -2.33914736490282
H           0.20319863217163    0.43392873591940   -3.29584975598273
O          -0.74239138239386    2.37490627628712   -0.58445901124775
H          -0.55762941186219    1.78422351712474   -1.33756637156972
H          -0.05054290943765    2.15182330902212    0.05624269574623
O           2.42826887401678    0.19497917729453   -0.81512178962614
H           1.71953093021745    0.32162185925350   -1.48574310681845
H           3.00039601599991    0.96256896018621   -0.86065701777260
H           2.40259944239876   -1.75878735025053   -0.25906146223460
O          -0.39050837958868   -1.84876763495713   -1.44755566700006
H          -0.06879173541023   -0.44191146909757   -2.01819572672168
H           0.44440540015652   -2.26445797401521   -1.13944119071392
H          -0.84148830115152   -1.64430764495257   -0.60523539561523
N          -2.38749298378470    1.17575580207604    1.12755202017890
H          -2.15753244000938    0.17148433525920    0.84399586819999
H          -1.91267902844700    1.80563861128720    0.42668102469523
H          -3.37657558707090    1.36832411676268    1.24068460078223
