    26
        -50.45860917  Gyration_radius:  2.40815714396 Dipole_moment: 7.098
 S          -0.92386681724101    0.49374115247908    1.65631630763377
O          -1.69718395615999   -0.16713564707214    0.58609318909160
O          -0.58611685957481   -0.38710013054938    2.73380921628328
O           0.45465047585753    0.91844167682121    0.94799504546974
O          -1.50615280266367    1.77958817505960    1.98268399760431
H          -1.77081156052679    2.35763084165411    0.48649580318764
H           1.09850520985255    0.17848813996163    0.91656262610350
O           0.56364185714776   -2.55648032008713    1.58011121845740
H           0.08018033550198   -1.89641142027636    2.11243616918900
O           1.12728883440198   -0.71728335286326   -1.99032636692983
H           1.38818711505907   -1.18190590520932   -2.78640293185881
O           0.50041973034165    1.94369736770818   -1.58289084118339
H           0.65946710622344    1.04929246073368   -1.93652944110545
H           0.80303325073983    1.88357970398855   -0.66425860859258
O           2.42348094235297   -0.77012930132975    0.36360004699462
H           2.07586401379924   -0.80383540543979   -0.55622426369754
H           3.23606751007850   -0.26231291480123    0.33958661323466
H           1.44215517806664   -2.18823073073127    1.43853807826697
O          -0.62226434208681   -2.15773748466782   -0.78986693254659
H          -0.16819389903290   -2.56809980108385   -0.02154303547706
H          -1.19348284231657   -1.49196088807896   -0.35956805620225
H           0.39946000749800   -1.28657299513699   -1.56770765822666
N          -1.93559392963793    2.08028938186415   -0.52360384125879
H          -1.05332496665028    2.18946995615256   -1.09212391080225
H          -2.74479461144723    2.52608104682166   -0.94146686192382
H          -2.05061499959121    1.03489639403737   -0.33171553171503
