    26
        -50.45860922  Gyration_radius:  2.40817824363 Dipole_moment: 7.098
 S          -1.51727363563669   -0.93056342980706    0.81972066224795
O          -0.93896580805583   -1.48045427639654   -0.42247776013130
O          -1.12481130516900   -1.65297552246395    1.99231195020217
O          -0.87994833848896    0.53978767198227    0.93951078861696
O          -2.92440780126592   -0.63744023104363    0.63763092518486
H          -2.87418436646445    0.09768943693911   -0.81033841912311
H           0.01455409810172    0.52426201750519    1.34289853088805
O           1.58120444284786   -1.81056814273636    1.88981743025424
H           0.61747799258831   -1.92089446691311    1.99871935390374
O           1.92717261639780    1.05175478049596   -0.96270816488975
H           2.74231625099960    1.23054538662253   -1.43306945985304
O          -0.59304559398500    2.15156450953376   -1.24651458115340
H           0.31901184351586    1.82636078859599   -1.35943975843037
H          -0.78223555872152    1.98147265195275   -0.31146017454376
O           1.61720332072326    1.03477479164252    1.70705423200895
H           1.78305872846688   -0.92615868006643    2.21304157165594
H           1.85735553941700    1.11555102435958    0.75635461429452
H           1.63121645821418    1.91864263927165    2.07768623110394
O           1.68615835814812   -1.49415211410300   -0.76936350195850
H           1.83558583040064    0.03991389285119   -0.94925292909737
H           1.90210791897223   -1.72645187017233    0.16027064238016
H           0.71791314217246   -1.62312367488490   -0.79373964870748
N          -2.32108129361912    0.18361330777360   -1.71114006271321
H          -1.74023344884144    1.06465622829675   -1.71278680754934
H          -2.88317340019433    0.06719446718928   -2.54699244014873
H          -1.65297599049433   -0.62500117641938   -1.50573323442569
