    26
        -50.45860920  Gyration_radius:  2.40814575099 Dipole_moment: 7.099
 S           0.04283856839744   -0.77717208472809    1.79806166094962
O          -1.06340825412504   -1.15035377042353    0.89424847457420
O           1.04515304978250   -1.79365292271251    1.91214528192845
O           0.73419074339654    0.48486119180126    1.08265451641117
O          -0.47458267436456   -0.18912548544524    3.01692098346452
H          -1.59095455973443    0.81339180271168    2.39455804231279
H           1.37147366720437    0.21374965414524    0.38721358463817
O           1.73428768752674   -2.43830451796534   -0.63079323506822
H           1.51116101220030   -2.38347113469643    0.31792652399044
O          -0.01669969064708    0.84578991043287   -2.24319378604504
H          -0.15200441197312    0.96128705170013   -3.18453193479060
O          -0.75504348049539    2.43952171453244   -0.10905586049700
H          -0.00141072712913    2.11464677941235    0.40614093406961
H          -0.66586688290873    1.97794306314811   -0.96304112750378
O           2.32809468583676    0.32077139123902   -1.03907357775121
H           2.32487017975302   -1.69802052202775   -0.80563365577973
H           1.55260791691709    0.55522574152647   -1.59738989002286
H           2.90456331665836    1.08635047647546   -1.02114806396023
O          -0.58436806784510   -1.58922184417730   -1.67257738525713
H           0.27101593635620   -2.05072042525024   -1.53068797266152
H          -0.93572359304378   -1.52328004134035   -0.76318987941513
H          -0.29889397687985   -0.10934440020654   -2.04190749956318
N          -2.22489350401657    0.98191902404233    1.56110322722904
H          -2.04715678416714    0.03599599721415    1.09657484318686
H          -1.81761415002485    1.71589585923709    0.92159650913524
H          -3.19163597670331    1.15531750135438    1.81307929641986
