    26
        -50.47166902  Gyration_radius:  2.41838391447 Dipole_moment: 3.983
 S           0.62757563627553   -0.60271980633360    0.32783854737138
O           0.51205122044588   -2.02699089513281    0.13183849647276
O           0.35195063472830   -0.18643393837040    1.70344257070724
O           2.09987757412042   -0.15283372161777    0.07390749427223
O          -0.19846432715006    0.15165336161949   -0.62324492730936
O           0.85342056053719    2.54074833492611   -0.26073857813395
H           1.77582657970291    2.34260051709267   -0.08234431467169
H           0.47264398475577    1.69462457778904   -0.58208362835915
O          -2.64943184891321    0.80012972153825    0.26596169680530
H          -1.90246061426664    0.59468629689653   -0.32768272687309
H          -2.76422987009077   -0.02706096027626    0.77134340073689
O          -1.98966727838808   -1.51627537035501    1.52302143599792
H          -1.77053415146179   -2.29775431250201    1.00987347637413
H          -1.13082549785943   -1.14276417953501    1.77912770986517
O           0.16511646739946   -1.90413090106442   -2.47930938851058
H          -0.31121659396431   -1.06772661044286   -2.47719663960379
H           0.19937949127075   -2.16085229269109   -1.53442278230327
O           2.69463536568149   -1.22545481335638   -2.19950113614458
H           2.39409858996085   -0.52983031360880   -0.80703989232426
H           3.17040573508660   -2.04514414596338   -2.04811673724975
H           1.78352930063117   -1.48877915413622   -2.49170330411136
N          -0.88969320843677    2.08955818979819    1.69729574370571
H          -1.76497365254759    1.74243874091713    1.18454004074801
H          -0.28251308866221    2.60038214859832    1.01637924712021
H          -1.09511866485021    2.62431343756107    2.53336956983397
H          -0.35138234404145    1.19361607861404    1.89544461556391
