    26
        -50.45860918  Gyration_radius:  2.40817373656 Dipole_moment: 7.097
 S           0.76327103650450   -0.33601956000647    1.77316364698464
O          -0.59954110777633    0.22529653274597    1.68523027233984
O           0.77836622361838   -1.73309730189605    2.08747472747884
O           1.35427275236851   -0.18328029627799    0.28656384156688
O           1.62599633832869    0.54422159140883    2.53471297508200
H           1.21256970494623    1.97577534438140    1.88613813793802
H           1.07161001626402   -0.91613053804671   -0.30183769597663
O          -0.89596185850921   -2.90719645690269    0.30575543803450
H          -0.35805785323427   -2.60855869376114    1.06359367346433
O          -1.00222462433209    0.31497402441913   -2.15516760462435
H          -1.62181705598816    0.40288215638976   -2.88052503116545
O           0.91092356142809    2.06579616121154   -1.19802589194573
H           1.44878000187669    1.32211239386429   -0.88718137974090
H           0.13923898711975    1.63524701250826   -1.60963721474710
O           0.68385519762373   -1.74056757466927   -1.76161494434591
H          -0.29537546347204   -2.94104681787120   -0.44626490618462
H           0.05555416043198   -1.03873300096808   -2.04591660539032
H           1.41611352605148   -1.73105250725475   -2.37997320481613
O          -2.28153109574424   -0.66062471775691   -0.15799327506315
H          -1.54909161001319   -0.02282081123262   -1.36821707322484
H          -2.01193846220772   -1.60239857102646   -0.08545564272569
H          -1.82842799446193   -0.25757259365216    0.60814449685631
N           0.43915708929318    2.49900646045538    1.38347375092874
H          -0.30339699024119    1.74020111128086    1.50692842613285
H           0.63920283102282    2.56278158843788    0.34932411131275
H           0.20845269910548    3.39080507424911    1.80730696199214
