    26
        -50.45860917  Gyration_radius:  2.40824758503 Dipole_moment: 7.099
 S          -1.65009377958666   -0.58490576481180    0.88015168431673
O          -1.65201585130688   -0.42485759369104   -0.58757051209923
O          -1.57156123426640   -1.95235551638548    1.29821811806713
O          -0.29241302109909    0.13013366850356    1.35755643005424
O          -2.66417817732441    0.25594159415410    1.48334368374240
H          -2.41085939715882    1.63514878840759    0.66372029931815
H           0.48696162160033   -0.46064511373436    1.27501207295774
O           0.54408211137832   -3.00929192765958   -0.02971335780380
H          -0.29225861533741   -2.79316540028970    0.42490963481681
O           2.03444104989860    0.60438325197935   -1.11609216121931
H           2.73770475665800    0.71255855459918   -1.75755354117041
O           0.54257149184209    2.48515347962028    0.25464648756299
H           0.42056350205438    1.86612775163580    0.99004588999835
H           1.09345289632492    1.98669698620321   -0.37650661451909
O           2.13389638450955   -0.92453659351998    1.09220690136991
H           1.24612514282109   -2.66552167835384    0.53279061299080
H           2.24678587417575   -0.37611154738342    0.28318965921158
H           2.68743059895062   -0.53962392151010    1.77350039958947
O           0.44512043604866   -1.20129765239345   -2.00546034193143
H           0.61897304057058   -2.01236228139418   -1.47937754005694
H          -0.42356463245933   -0.91526948622541   -1.66152620596673
H           1.39763536829457   -0.07611015537919   -1.52074986779700
N          -2.03266846065270    2.03995608097293   -0.24073555518809
H          -2.67195666046458    2.67947141754250   -0.69953795399238
H          -1.90784652605174    1.10119361258971   -0.73598415278645
H          -1.06632790942377    2.43928943654512   -0.09848405945493
