    26
        -50.47166904  Gyration_radius:  2.41841847337 Dipole_moment: 3.981
 S           0.48457528040732   -0.42252263014836   -0.67172524106184
O           0.23060990262734   -1.78437779673712   -1.07325290257643
O          -0.65035855900685    0.15586881850602    0.05860370749406
O           1.72680910541467   -0.26764748274835    0.08624377950140
O           0.68680949891785    0.47112621001716   -1.93472587302377
O          -2.36282601044298   -1.47154357278873   -1.43271510160004
H          -2.48262522840430   -0.82088936471460   -0.73362460398444
H          -1.45607331770974   -1.81301571656779   -1.28743235925056
O           0.83287615035965   -2.20308695822482    1.74100341045771
H           0.38995090447247   -2.82045425521041    1.15385348216092
H           1.33909746087540   -1.62302987998110    1.14938876407069
O          -0.50987984490650   -0.05972963828224    2.73285232314246
H          -0.86098431298546    0.03542822908494    1.82714645073805
H          -0.07992223156109   -0.93583229484095    2.71232409245589
O           0.06098286623735    2.69154433849367   -0.03859323901702
H          -0.37780071104933    1.81316680486002   -0.04935187694791
H           0.49936987892072    2.75728833847376   -0.89030916391434
O          -1.33352179614416   -0.10742261248759   -3.43682688731081
H          -1.06746005756573   -0.75975889148384   -4.08858155859401
H          -1.88749023678761   -0.59484338514662   -2.77325980699149
H          -0.07624993418414    0.30225808565217   -2.56237732103003
N           1.40638208738701    1.52139235102454    1.93527956583506
H           2.15640037909936    1.87167903784876    2.52004511350932
H           0.65032775687289    0.99100541011289    2.47988248369576
H           0.94685502197677    2.26396373918239    1.36016115269483
H           1.73414596717745    0.80943312610621    1.21599163954033
