    26
        -50.45331700  Gyration_radius:  2.44699248216 Dipole_moment: 6.622
 S           0.93975774092799   -1.91904418795272    0.88486848294452
O          -0.58841422503572   -2.27145631350676    0.67122730260680
O           1.67825228022234   -3.08679059507357    0.54516849404356
O           1.16962907230502   -0.81404268934352   -0.11158004355261
O           1.10777275681596   -1.38371556042666    2.21804464768419
H           0.65505847727761    0.11396857774768    2.20036769106406
H           0.30176195886343   -1.03001141076116   -1.13070162090593
O           0.24517383621103    1.02632289382376    2.22007549463246
H           0.36540728025123    1.34623409047072    3.11542851208033
O          -1.84057812996364    1.07382350873578   -1.29024184348810
H          -2.38718046516857    1.70931380980238   -1.75299859090974
O           2.39049434267893    1.27260267305783   -1.22035538083559
H           2.06779799054854    0.44252492274252   -0.81796078242942
H           3.21753759708776    1.47733017103635   -0.78130311306559
O           0.11515866337335    2.34491836265654   -0.20793947480446
H           0.20170580869727    1.96342303136596    0.68324313788908
H           0.94065976155122    2.09625532703607   -0.67074753646117
H          -1.07104634422263    1.60184250687086   -0.89569708821690
O          -1.97454949810333   -0.15183512242964    1.23228588858834
H          -1.29851876069536    0.38001311302217    1.69655733262953
H          -2.11528233385019    0.28729340415739    0.37922863146491
H          -1.14422315856082   -1.50534023911615    0.99096875712597
N          -0.55668995962887   -1.21297424328829   -1.86464869565977
H          -1.05102168241167   -2.01446318405401   -1.47536421061680
H          -0.22063799265157   -1.39253232790571   -2.80403150707757
H          -1.14802500652380   -0.35366051866339   -1.81389448472994
