    26
        -50.44340975  Gyration_radius:  2.45053937837 Dipole_moment: 3.512
 S          -1.44005823287808    0.79801350518434    1.47279860889115
O          -1.01690089743810   -0.54803234444741    1.84957711197058
O          -0.46789599086920    1.81216388929014    1.80910076766161
O          -1.90844479857190    0.85684622759419    0.10072737604014
O          -2.72274928199966    1.10337739248982    2.35834102995669
H          -2.36017787812711    1.24518018399001    3.22742277265150
H          -1.68848565446374   -0.28316853808498   -0.92285912428720
O           2.22343791370408   -1.69033188543933   -1.05181191715081
H           2.28863344846445   -2.34048284415566   -1.75414242114738
O          -1.49476089849186   -1.05925424567353   -1.52945060480891
H          -2.34566450856081   -1.44438260378846   -1.74531752142983
O           0.21823240415807    2.48501785669171   -0.71478420670410
H           0.10560257374765    2.33013782609548    0.24023995367090
H          -0.67999150617060    2.55394488442137   -1.04845872494703
O           0.95340687083237    0.31530496488785   -2.16921816926946
H           0.84130845943999    1.13229918631905   -1.63893375413525
H           1.89825820439301   -0.84929386031107   -1.46973632425411
H           0.07080220080487   -0.06659743893596   -2.23636185791106
O           0.06337156407403   -2.10234179787618    0.21954725104480
H          -0.24018824610327   -1.46071259328086    0.98070012201936
H          -0.54399518081934   -1.82514860380936   -0.54467592418047
H           1.02713122347330   -1.85157574650093   -0.08707029186852
N           1.67519863108602    0.02325255904670    1.00927521640476
H           2.26110040124944   -0.37974988367143    1.73004609159948
H           1.00851743984964    0.63206662452261    1.47023699567595
H           2.27431173923012    0.61346729547668    0.44480756452084
