    26
        -50.45521640  Gyration_radius:  2.43503236321 Dipole_moment: 2.515
 S           0.91096910130190   -0.83005546202755    1.39573932039436
O           1.62540931491175    0.18317219867823    0.64964699615724
O           0.76235375035439   -0.57593975290217    2.78920172755643
O          -0.46539471909059   -1.02990425037639    0.73199585189046
O           1.56973015078972   -2.19941776973982    1.16601728301835
H           1.80880181831693   -2.19721460131395    0.19216360562476
H          -0.97089046454131   -0.09493321967126    0.57438534379140
O          -0.04148165986006   -0.74733918228460   -2.70475238877590
H          -0.16312899688440   -0.95437210819212   -3.63250970395861
O          -1.57357817196858    1.14745735608856    0.30311002205877
H          -1.31289412831622    1.61009964934090    1.15253966473460
O           2.11685204250863   -1.64505386013055   -1.27772539626457
H           2.37002299184962   -0.78942400382020   -0.90484681871097
H           1.33727832913805   -1.46027596681496   -1.83717147058820
O          -2.30920403464693   -1.13413246436466   -1.36216877889318
H          -1.95174318949322   -1.62025078542471   -0.61027149887591
H          -2.55426735124582   -0.26919649542786   -1.01221641435312
H          -0.90567764452065   -0.92692958492113   -2.25930451440890
O           0.42800779874906    1.62159491287342   -1.30608775101774
H           1.01576922444810    1.26369401661359   -0.61711328249001
H           0.34450798289889    0.91674447697365   -1.96787308402129
H          -0.93668494086259    1.49484702431506   -0.37951923894526
N          -0.45098653559059    2.02908982182456    2.51526682082447
H          -0.01344829650521    1.14588492312394    2.77741730723026
H          -0.93746561949009    2.38618911075083    3.32841424300533
H           0.29714325775418    2.67566601681895    2.29566216502011
