    26
        -50.44340979  Gyration_radius:  2.45070622441 Dipole_moment: 3.513
 S          -1.00763152839864    1.89869139100433    0.51331741999154
O          -0.53034597302396    1.93002781391257   -0.86654314633942
O          -2.23490054877573    1.15306437629904    0.67089055934637
O           0.04051300578662    1.52028564307463    1.44281336268299
O          -1.35548074056036    3.40503259115515    0.87730806902362
H          -2.16141587559465    3.56544977213346    0.39600956410894
H           1.39481006025025    0.91631744945294    0.99775686189376
O           2.24075032414605    0.51965326381156    0.63084614819089
H           2.93566056396184    1.14912571396051    0.83039665532259
O           1.03185967530683   -2.19628932257594   -1.73793751204510
H           1.90550371970255   -2.55460205959582   -1.90695950188221
O          -1.21311140858283   -0.88962124176485    2.11269242601324
H          -1.71831276405870   -0.25275674426951    1.57626273202538
H          -0.71569860422063   -0.33866094806931    2.72261681051653
O           1.20163603660185    0.33781163671342   -1.70655092564441
H           0.90705038935529   -0.65745332015047   -1.79881054756939
H           0.37748780943715    0.92643580632924   -1.46705586101189
H           1.74640744300201    0.37975874037028   -0.85158302597238
O           0.91932371141382   -2.02609815939888    0.87783839188694
H           0.06956751197834   -1.74468177762035    1.27776378649605
H           0.87784154118744   -2.26766722410855   -0.75871021211633
H           1.52285273759602   -1.28780419866116    1.01953541456229
N          -1.27956233170812   -0.82479495237559   -1.22754701465432
H          -1.70605978096607   -0.85514926227458   -2.14536725900115
H          -1.75315567058759   -0.09963322890804   -0.70076894094353
H          -1.49558930325035   -1.70644175845558   -0.77821425488009
