    26
        -50.44340957  Gyration_radius:  2.45022052047 Dipole_moment: 3.521
 S          -2.04040458520739    0.42596028435984   -0.72609621359562
O          -1.10802208880660    0.33773747163302   -1.84657579665098
O          -2.44376328538940   -0.86640707271417   -0.22216769861943
O          -1.57549784285832    1.34349427924477    0.29740339763220
O          -3.35169955898479    1.09992123442828   -1.31690259326147
H          -3.73477689339834    0.40665351343157   -1.84570874700980
H          -0.13583792137590    1.91060360827831    0.34023133309792
O           2.81448410983818   -0.98610904674665   -0.09068132006538
H           3.66918234167396   -0.56468623273599    0.01954210841239
O           0.81763133604644    2.22272075717945    0.30640613205211
H           0.78109284830075    3.16435498515353    0.13042458951592
O          -1.22578225236204   -0.69669082016084    2.18199040095387
H          -1.53479002801411    0.18907450669767    2.38903952412657
H          -1.68366738419338   -0.91989916271864    1.35172661021782
O           1.36359931677733    0.52042629174899   -1.53159488189606
H           0.36617516636482    0.28642860806005   -1.71398437825105
H           1.28402324838733    1.25673676425582   -0.83777817120322
H           1.82596920437102   -0.27413326265961   -1.04082521328296
O           1.40522532981409   -0.08388424409091    1.92982703024021
H           0.50404112678501   -0.44981255485482    2.05369673290486
H           2.29795791267931   -0.80684496460674    0.73931111063505
H           1.27238516039210    0.82704695260302    1.64382551391331
N           0.26450523009691   -1.85099231747419   -0.57978850282474
H           0.45454081593319   -2.33803367595007    0.28775232733126
H           0.44093245601915   -2.51087599539178   -1.32725418509460
H          -0.72750376288471   -1.64278993696943   -0.59181909928022
