    26
        -50.45177095  Gyration_radius:  2.50189089147 Dipole_moment: 4.142
 S           0.60823423974191   -0.80494880085335   -0.17066549220686
O          -0.14860944863271   -1.16463038624462   -1.37578899494114
O          -0.32010640090806   -0.84738449454954    1.01010687601396
O           1.75059053721801   -1.66996301062108    0.05632087444293
O           1.07081680632381    0.62089234677753   -0.28631455525990
O          -1.04590438733589    0.51166499374415   -3.04491450676817
H          -1.23972874736966   -0.00841013005983   -3.82622465990254
H          -0.55031920983420   -0.10841608739040   -2.42036917720423
O           3.25992581329429   -1.48870230769657    2.13055212278877
H           4.15487891272728   -1.45014549672995    1.78995227342614
H           2.68852662297245   -1.70435649409041    1.33921714854268
O          -2.52233367414993   -1.27300085684779   -0.15729878230697
H          -1.73261844017032   -1.11876049885097    0.45137498548406
H          -2.10427777924191   -1.76760279990979   -0.87561002439690
O          -0.84179329496642    2.25982704029205   -0.04677322804486
H          -0.09099024098680    1.58219586470430   -0.14172251523278
H          -0.59332057602519    2.98832113286446   -0.61986574673992
O          -2.69822346406190    0.98404776152139   -1.19104918921171
H          -2.71862383067988    0.01321499557586   -0.70572611088729
H          -2.03869324198627    1.55441247712244   -0.62919071865661
H          -2.15451120890933    0.82708421775753   -2.05250469098958
N           1.47579307282031    0.44958207148000    2.21155140783053
H           2.28198788594273   -0.19401738533969    2.41191047977097
H           1.34401215499184    1.18177252989638    2.89967938819149
H           1.55696050798481    0.78851026792332    1.20167744534880
H           0.60832738125890   -0.16118695049795    2.04167538092018
