    26
        -50.45521629  Gyration_radius:  2.43490496368 Dipole_moment: 2.509
 S          -0.45126086717265    1.25670206768626    1.29706627885318
O          -1.38033654844883    1.07493213493997    0.20276470952231
O          -0.97435401363718    0.99760252008949    2.59619905107753
O           0.78411882868963    0.37635587753076    1.02540658355925
O           0.15166535608369    2.66870945791907    1.23179388748724
H           0.30558222775580    2.82498456464341    0.25310182255049
H           0.50832379816660   -0.63421646869894    0.78666603634604
O           0.11687544626519   -1.92791276651078    0.39394485474052
H          -0.64273085839034   -2.03861749869575    1.03759751713554
O           1.40650725828260    0.43338949747476   -2.38795521725343
H           1.92434908553247    0.47086280694656   -3.19350994182066
O           0.19041672885471    2.64838635879334   -1.33235888930488
H          -0.68760765283801    2.25691550151925   -1.22708906281199
H           0.74068382558668    1.94215918238944   -1.72392672219861
O           2.70807161668143   -0.93906991932715   -0.51244758405200
H           1.94555272362659   -0.06870399318194   -1.72854851377279
H           2.58027031391644   -0.33275917712156    0.22608793071381
H           2.15041950622312   -1.70111815961275   -0.31499495134609
O          -0.99046924546828   -0.81630408036549   -1.69376139580233
H          -1.33770099796979   -0.13049917677937   -1.09589993606577
H          -0.23544050900104   -0.40781048867702   -2.14626047556237
H          -0.31851204769948   -1.71160222949062   -0.47548458597170
N          -1.92229956121061   -1.67152125984566    2.03920366636974
H          -2.78436320191452   -1.57030861759900    1.51711891971214
H          -1.67171540819772   -0.74430951331947    2.38236096826876
H          -2.11604582370548   -2.25624662067674    2.84292506959835
