    26
        -50.45521597  Gyration_radius:  2.43537010038 Dipole_moment: 2.496
 S          -0.96369249832346    1.21189592571911    1.03431467046505
O          -1.71644844559394    0.17107773064289    0.36842562869847
O          -1.06693423844865    1.23086975360018    2.45467659350359
O           0.51000923310957    1.08802900444355    0.60035525907596
O          -1.34644945796196    2.58008202024186    0.44827722467363
H          -1.43417569103077    2.40964034161450   -0.53598756355210
H           0.87328171524374    0.08392257977059    0.70739592474974
O           1.29995853010220   -1.25772481851169    0.77830281880531
H           0.84619857722035   -1.49649300473328    1.63871187924129
O           0.56633633649124    0.16355695636306   -2.74095689736731
H           0.85760285106389    0.15781172614559   -3.65390223584798
O          -1.60438090271737    1.61335846314984   -1.91339152557589
H          -0.79029545946377    1.21609021668168   -2.27972563160971
H          -2.04871450248702    0.89364021836642   -1.44458162285781
O           2.64324226046160    0.50891455506342   -1.10907113358899
H           1.37220904936698    0.31308295589291   -2.18805528711277
H           2.26923063104116    1.18794942476451   -0.53613586368542
H           2.67961155374420   -0.28877551307112   -0.56757572448557
O          -0.49260374621095   -1.78557055517960   -1.04655989814611
H           0.72192082468454   -1.65213469743254    0.06946289413735
H          -1.11010273117715   -1.21945489072267   -0.55021102075909
H          -0.19577267177937   -1.24868667959811   -1.79843069396200
N          -0.26117685325995   -1.50819658555903    2.88394460052748
H           0.03994857985407   -1.74491462990210    3.82137718168556
H          -1.06285666311087   -2.08656673952334    2.66292599921816
H          -0.58594627082237   -0.54140376822533    2.89641441378117
