    26
        -50.44340931  Gyration_radius:  2.4501931362 Dipole_moment: 3.528
 S          -0.37916876575262    2.06646793518066   -0.67654776797214
O          -0.77424869391168    1.90679514364935    0.72035155506341
O           1.04633050265899    2.22705525796091   -0.84677122659512
O          -0.96805580975009    1.04997325605471   -1.52820445735811
O          -1.03861484484823    3.43151953858216   -1.15057878094957
H          -0.51467621453795    4.09285564043157   -0.70898164623547
H          -1.66591003144210   -0.21891776351297   -0.98110692195513
O          -2.08852472365134   -1.02029834968781   -0.54889629581855
H          -3.02414942091300   -0.96623706123546   -0.75048062925665
O           0.54442015811364   -2.22357703632082    1.91314364326389
H           0.07813958240268   -3.02947230446823    2.14406463642822
O           1.51083046261072   -0.11362529951756   -2.11016024482190
H           0.78559377726621   -0.03665305356401   -2.73546438484402
H           1.50917514277118    0.73863558097083   -1.63839786131463
O           0.52693996556575   -2.21918371483369   -0.71036420604538
H          -0.40348966879218   -2.02258881390162   -0.86810112579271
H           1.02237961700066   -1.50625358466152   -1.16606515349226
H           0.70914185936646   -2.25897361958224    0.93368239204215
O          -1.15289976619008   -0.34218807360965    1.74005662796429
H          -1.60968437131330   -0.71080591689555    0.91223158769643
H          -0.30705640365016   -0.93514064207411    1.87720575667003
H          -0.86764648708588    0.60776306175504    1.42498153424457
N           1.51684360405449    0.23693444086655    1.21411001535095
H           2.22983320058181   -0.35693241036280    0.80810390912908
H           1.87305302131767    0.54644730002423    2.10996436414329
H           1.44144429813440    1.05640049876008    0.62222467045936
