    26
        -50.44340937  Gyration_radius:  2.45050836834 Dipole_moment: 3.528
 S          -1.06685324310819    1.63661876241550    1.03034031972886
O          -1.42344859031263    0.34650931840458    1.61458631511679
O           0.21412013176437    2.12791308794592    1.48245640115835
O          -1.23000684268800    1.64452196520621   -0.41145731294737
O          -2.15172660348346    2.66230289600581    1.57219529733568
H          -1.90993547904251    2.77306494390986    2.48662077650579
H          -1.44758827570064    0.36045262359361   -1.24807870315760
O          -1.57146409383018   -0.51661600995681   -1.72041511816692
H          -2.45850066291781   -0.49773110383914   -2.08343001147332
O           1.23815809158709   -2.69014556064930   -0.36669964686544
H           1.08130431530492   -3.41662187703833   -0.97321918495576
O           1.51793024572999    1.91672969398740   -0.87298772181751
H           0.83278024836309    2.32968956371800   -1.40497424518507
H           1.19955754062548    2.01501002018047    0.04227814043457
O           1.30117840724257   -0.57688573068297   -1.92038164046479
H           1.43483811805907   -1.89048227415225   -0.92306441558388
H           0.36667789118319   -0.51207341101787   -2.14799429827302
H           1.52611011384019    0.28275155765950   -1.50598465354813
O          -1.01006168251861   -1.80931266062439    0.42153559927412
H          -1.07097479518511   -0.96925716178791    1.03227257276326
H          -1.27972053418749   -1.43318959341901   -0.48163420809180
H          -0.01350888061488   -2.09519293227061    0.31664874796502
N           1.29466085819283   -0.56417370414420    1.35534673312944
H           2.18359380643803   -0.43719929457193    0.88668584438717
H           1.49111049924386   -1.04585934499251    2.22402371392972
H           0.95176942601498    0.35917620612536    1.59533070880316
