    26
        -50.45109193  Gyration_radius:  2.49278424206 Dipole_moment: 4.674
 S           0.23560502663787    1.51441746526452   -1.71278387790471
O           0.92848571098004    0.25237504254046   -2.27629899010437
O          -0.83434405300768    1.92570040123122   -2.55052221087953
O          -0.14929831407672    1.24919468281698   -0.33955214433906
O           1.37937032715690    2.53926799807337   -1.71616386930251
H           2.08218772680390    2.08488840585865   -1.16764380239032
H          -1.57929403783002    0.38933352829631   -0.59386551356248
O           1.69111050835263   -0.89779553189701    1.07925965204903
H           2.23172089248408   -1.36473109071815    1.71809279433731
O          -2.21789446812895   -0.29815686573240   -0.87027332101313
H          -2.56622949941619    0.00755064391281   -1.71089371085678
O           2.98098137645126    0.94530329802434   -0.45832553845460
H           2.48675279808859    0.35317412466002    0.15023506730232
H           3.22606446162384    0.39833696647239   -1.20951385348569
O          -0.11335889854623    0.48846470289951    2.28425244700408
H          -0.21009730015855    1.06462507273466    1.51328789391776
H          -0.92171296508027   -0.07880123736290    2.28647223461910
H           1.02317568972518   -0.35885652919040    1.60955139125728
O           0.11852957399170   -1.74050326702359   -0.97091074087985
H          -0.80081109326582   -1.45309213771814   -0.81805312095376
H           0.61020273232497   -0.61646862329273   -1.81059662053941
H           0.62528267724457   -1.55789949827763   -0.15381189387333
N          -2.32645394678392   -1.08347205114900    2.00521983416540
H          -2.54657948869034   -0.90178425863693    1.03019433334238
H          -3.11446417832467   -0.77586161197347    2.56098387686373
H          -2.23893125849545   -2.08520964016108    2.12165967375110
