    26
        -50.45521640  Gyration_radius:  2.43491666814 Dipole_moment: 2.514
 S          -1.62332843802909   -0.91078570159994   -0.02228506386452
O          -1.39758488474578    0.06274576869672   -1.06875435114692
O          -1.85231847901465   -2.24518867168331   -0.46428646631349
O          -0.42438031346162   -0.85890698393149    0.94444558827250
O          -2.77314432136205   -0.43848676856479    0.88134312884627
H          -2.62482518231607    0.54912441667427    0.97213972183146
H           0.51227210846302   -0.91789292525324    0.42113680311797
O           0.57025929884200    2.45508890786076    1.23319446166596
H           0.87569209119477    3.25434560482178    1.66476674979308
O           1.72417929852199   -0.91100939116295   -0.29396486934037
H           1.46989175029924   -1.58127385226716   -0.99371357132815
O          -2.07371420570381    2.01972081358580    0.66664134821549
H          -1.17644845356951    2.21700879805142    0.99948760517449
H          -1.95289203305732    1.78281956501035   -0.26318664477609
O           0.96004231025911    1.37094982087966   -1.30837364101702
H           0.88454273681257    1.94037304549074   -0.52618238585599
H           1.64256431801163   -0.02828875558938   -0.74829273362407
H           0.07770392106247    0.97722865620355   -1.42970734890437
O           1.68007882653914    0.31058711147478    2.35750434309402
H           0.99884836204613    1.69829205340483    1.70339793000036
H           0.88922190138088   -0.23442551393532    2.44138967895831
H           2.20292810301596   -0.10613520159284    1.66210333680298
N           0.54700465232009   -2.47683941417590   -2.05264705951150
H           0.37472248980828   -1.97016569852816   -2.91264355311835
H          -0.34506099179608   -2.54311134154625   -1.56271448450312
H           0.83374513448047   -3.41577432232754   -2.30079851245447
