    26
        -50.46516758  Gyration_radius:  2.53868253175 Dipole_moment: 5.800
 S          -0.10335185669795   -0.59781805076504   -0.13417632337598
O           1.09657021707989   -1.17710964317123   -0.75963835352878
O          -0.54797102139801    0.57393800967905   -0.88338145947715
O          -1.15399817205205   -1.55746988615685    0.08774802755334
O           0.43143161600699   -0.08200398484453    1.23978003936962
O          -2.14182063881221   -2.15805842824509    2.48193605416934
H          -1.83377028123557   -2.03945164666571    1.55902573779537
H          -1.65379283644448   -2.90417710771287    2.83217846596704
O           1.54193458427501   -0.18569991015353   -3.23310962980508
H           0.80961719571211   -0.40119722470561   -3.81260073330462
H           1.37401116730721   -0.66628721478818   -2.39824756029268
O          -2.93196456153454    0.69988887366793    0.29363999971604
H          -2.12233920949432    0.77076848566111   -0.24733991223721
H          -3.22624046841924   -0.20852318551189    0.18317592573918
O           1.37854156903188    2.09204667409566   -1.81678905575114
H           2.24611489672354    1.45315780616199   -0.78362645826916
H           1.55683572828820    1.51116639792633   -2.58449178079448
H           0.52218588506378    1.74071438826529   -1.47783830312613
O          -1.61270268619872    0.48084792555403    2.59248743159799
H          -0.37703932181557    0.18241979461337    1.82924959798006
H          -2.22110931087956    0.74998026091767    1.86465798347485
H          -1.90212302060872   -0.42202798305432    2.83237389607732
N           2.66856531756930    0.72942737757539   -0.06890908847725
H           2.14721569384599   -0.17790764643988   -0.32873873659155
H           2.37912153197872    0.95790855538666    0.88079178631207
H           3.67607798271418    0.63546733270854   -0.14815755072286
