    26
        -50.45521614  Gyration_radius:  2.43523007661 Dipole_moment: 2.502
 S          -1.20717327384035    1.38681206164558   -0.29731908300129
O           0.20089137165606    1.71338612402107   -0.36210318597456
O          -1.95019517885654    1.63438334556473   -1.48688241860363
O          -1.33585816546242   -0.09013599538106    0.12383845991147
O          -1.84914217016775    2.10852488176273    0.89793786410224
H          -1.16179322293132    2.03954425689567    1.62474382924876
H          -0.71684838630850   -0.73013706746854   -0.47586791201660
O           1.16336197594795   -0.76471187140324    2.43479093863320
H           1.56802712333681   -1.13612681365646    3.22014554857934
O           0.16682814414962   -1.53626252758866   -1.22061792121328
H           0.03602438852582   -1.09182768346299   -2.10867876140806
O           0.25405806777434    1.81735433556399    2.33680987240940
H           0.50975662764743    0.88850188392138    2.49995174623511
H           0.70573347218374    2.06458736825911    1.51816964345853
O          -0.62926465169677   -2.45789613518749    1.42734802854471
H          -0.30404880216278   -2.68356899170357    0.54751386365668
H           0.49869862990113   -1.42541588617166    2.11985703243118
H          -1.35127581022582   -1.83656011055218    1.27947307212438
O           2.11503706828114   -0.18633614165780   -0.12358052062765
H           1.03544544460923   -1.18180577240635   -0.88590965766517
H           1.59671232979724    0.62150971706829   -0.28746307016972
H           2.00321739656901   -0.37917412651935    0.82095426002668
N          -0.27432942224833    0.08064433836178   -3.25126801518329
H          -0.68030819328908   -0.18012747104807   -4.14154095055425
H           0.54783992490036    0.64123493475873   -3.44033416405722
H          -0.94139467807239    0.68360336634488   -2.76996849891501
