    26
        -50.45177090  Gyration_radius:  2.5017861762 Dipole_moment: 4.152
 S           0.54883832154802   -0.83394624863760   -0.22686554868217
O           0.35053033241349    0.31184684255464   -1.17978929534675
O          -0.76080109986017   -1.01281472102715    0.48782926474850
O           0.88333767960835   -2.03342559067492   -0.97121745552732
O           1.57481086206526   -0.46889777681201    0.75736787067117
O          -0.69956651531406   -3.10770034191609   -2.68992867424538
H          -0.17130253956722   -3.22618437552635   -3.48075873658610
H          -0.05122416116958   -2.82788475390867   -1.98229056476932
O           2.38993179776047    1.89398035594805    1.15179029798678
H           2.12329535781075    0.96622356259963    0.85502599086140
H           3.21472352262472    1.78649893839641    1.62790209469619
O          -0.11295007367077   -0.26505583007452    2.81462342862649
H           0.80078809006938   -0.56422907238335    2.70875985129182
H          -0.52225968723758   -0.60159887794812    1.95608370340697
O          -0.83839244470768    2.25913305858953   -0.08616888892691
H          -0.36045693261247    1.46512175576887   -0.50216124208994
H          -0.46407223775846    3.02950329959406   -0.51891078064506
O           0.12514674523131    2.14602967288504    2.24667000380565
H          -0.03934635040943    1.12362859072065    2.57397066951663
H           1.10225767501186    2.15437877081415    1.91917679221294
H          -0.39498719471810    2.23183348951763    1.35330078691406
N          -1.79855120725443   -0.88159067500176   -1.80479395609190
H          -1.58934648766454   -1.77162312165105   -2.32287587474639
H          -0.94820464361426   -0.23948303707805   -1.87954612125792
H          -2.68259431403510   -0.45186948712784   -2.05140304004009
H          -1.67960449454316   -1.08187441762139   -0.75579055578786
