    26
        -50.45109195  Gyration_radius:  2.49267562123 Dipole_moment: 4.681
 S          -0.88562004711668   -2.03541243133594   -0.59806809948914
O           0.48671446898518   -2.03886977529040   -1.30972453991084
O          -1.00089135217141   -3.13483566570993    0.29282325905467
O          -1.07295018859811   -0.73923715326249    0.02575987167623
O          -1.86137124935656   -2.16174847535722   -1.77745051928751
H          -1.61076871052027   -1.38291175023401   -2.35339401209362
H          -0.16874907746431   -0.95456544764655    1.43423100451385
O           0.49323658616692    1.58875790113764   -1.43566411920843
H           0.72684362912378    2.42775838596485   -1.83551933636338
O           0.57477131803917   -1.10639179350093    2.05154010784559
H           0.55703366785695   -2.04793586657640    2.23758714666198
O          -0.76306489966504   -0.20246775007947   -3.05959949802729
H          -0.39587186136911    0.46601207070606   -2.44025790020092
H          -0.00478702150738   -0.68643181896308   -3.39764168344461
O          -1.19748091923039    1.95319153985256    0.47174740629863
H          -0.18429903958654    1.79370790339614   -0.71670991217160
H          -1.49445742359670    1.03483656568748    0.40759275594786
H          -0.65580053635635    1.99301435819245    1.29652000898372
O           1.95892728572977   -0.33226809602628   -0.19160146665508
H           1.52055161573390    0.46065662706508   -0.56158565561760
H           1.64327112160453   -0.44297918310874    0.72457841756142
H           1.16163518866331   -1.38459082129535   -0.87384899918990
N           0.39599244009555    1.80339102091844    2.68192127568547
H           0.53821724287305    0.79841574105424    2.72585631580285
H          -0.06789987067497    2.08610925671288    3.53594868875142
H           1.30681763234083    2.24479465772479    2.66495948286864
