    26
        -50.44598984  Gyration_radius:  2.51170988822 Dipole_moment: 4.289
 S          -1.00966033250002    2.11711134434666   -0.67747866165284
O          -1.40920995137709    0.80335941992213   -1.13223024193511
O          -2.03693601080719    3.07656263609540   -0.51229737535266
O          -0.23725714359838    1.89805293800872    0.66333902359255
O           0.10947394513514    2.66684916859171   -1.58118101232217
H           0.69083506420890    1.87423676341083   -1.77366383379765
H          -0.67167785468397    1.11302818902630    1.15851738484222
O          -1.22817644075832   -0.08980272589556    1.87341705582577
H          -2.14803502207316   -0.16008124930607    1.61254339071490
O           2.32324291455927   -0.69168596871019    0.41344050272989
H           3.25042170350920   -0.92758409483887    0.46287528629150
O           1.15197426419650    0.33844026552660   -1.82956446871926
H           1.65201036281159   -0.00501995981608   -1.06415027293440
H           0.22611482996672    0.09462147002932   -1.67818333675915
O          -0.04545334237583   -2.10103470519770    0.78352310602747
H          -0.50348750539249   -2.19392837172996   -0.08779166225747
H           0.84977288878544   -1.78243230490054    0.59026392056601
H          -0.77069444491873   -0.91177397911320    1.49454219850064
O           1.61790780016343    0.87015696250022    2.44569724221633
H           1.21652296449231    1.60036961262980    1.95716360605915
H           0.88814032186815    0.42153409999565    2.88456872442749
H           2.13747642874549   -0.10526688874671    1.18773556094639
N          -1.36591528300715   -2.05125389888484   -1.57697896620535
H          -0.83668886889461   -2.17670979815017   -2.43134488843371
H          -1.64120286199304   -1.07297673454692   -1.52664272256641
H          -2.20949843605913   -2.60477220024238   -1.65611957981861
