    26
        -50.46328766  Gyration_radius:  2.42781175484 Dipole_moment: 7.586
 S           0.77818709422706    0.66322805868487    1.87208424922635
O           0.76648829980746    1.46617056260653    0.63569423761586
O           0.61687026355503    1.42712130670075    3.05808488084760
O          -0.24292186045217   -0.40885581091614    1.71713121064218
O           2.15427188688645   -0.07298360743124    1.91333653429387
H           2.24557156927170   -0.55780495939416    1.06425983569940
H          -1.40469242473977    0.09092068610803    0.95492335159577
O           2.48778446968640   -1.32293724441480   -0.42441619378722
H           3.42086790522336   -1.26796302485435   -0.63528056967547
O          -1.31497107222519   -1.16778788115494   -1.73897299423448
H          -1.66362075938879   -1.76274307656353   -2.40320644397873
O          -1.27976332499608    2.90720932468519   -0.03034748854250
H          -0.43955342434625    2.53364043393185    0.33780641999736
H          -1.03653148604519    3.33217797979342   -0.85509146508079
O           1.04182833887725    0.39090153995444   -1.73818439322836
H           0.19158513645358   -0.04506103014741   -1.89705808144675
H           0.93948487665759    0.89549964259673   -0.89721198329196
H           2.01584710006539   -0.68702123677154   -1.03714392432570
O           0.01252899971708   -2.46254923157188    0.07255926073886
H          -0.09514045296529   -1.82253912757839    0.81080781594742
H          -0.81479623670753   -1.74045321312390   -1.07907399119103
H           0.95503384420566   -2.42838894094922   -0.13978895300912
N          -2.18170562046464    0.42894976124417    0.27042393281246
H          -1.98916136056825    1.44707888219116    0.08131643747550
H          -3.09812541549881    0.29624038042734    0.68331402412744
H          -2.06536636623262   -0.13205018407005   -0.59596568926079
