    26
        -50.45109196  Gyration_radius:  2.49275237645 Dipole_moment: 4.674
 S          -1.16481920666947   -0.01623008281189    1.98120749149492
O          -1.22934699945970   -1.49547307817468    1.53635787209765
O          -0.54996700426757    0.10679979035224    3.25503059606459
O          -0.52019517543860    0.74870831240211    0.93069338410639
O          -2.65030191848072    0.37022855154862    2.03336184295124
H          -2.96534756041815    0.15409240434602    1.10854963167771
H           1.09854650987416    0.41467208160698    1.27213335684153
O          -0.88440127025171   -0.52384109994761   -1.94233073260034
H          -1.04013248191078   -0.64304155666193   -2.88037867216706
O           1.94656513252004   -0.05472506413632    1.40414845137214
H           1.98836179224492   -0.23589467427236    2.34586242008837
O          -3.09698199322577   -0.52426092157178   -0.35174601664349
H          -3.14413826773637   -1.45732203162566   -0.12653952189759
H          -2.30199663318614   -0.42911043350933   -0.92106169063957
O           0.60913191196430   -1.89690774622367   -0.13400244066171
H           0.19170552576166   -1.42373946030781   -0.88211652278774
H           1.28599195453644   -1.30709225906441    0.24699089084183
H          -0.47170856054640   -1.74450883741868    0.87520152338591
O           0.16657556880884    1.78512410322710   -1.50204191039379
H           1.14048730381073    1.62639147324355   -1.46264322890311
H          -0.49659460410621    0.40104332047481   -1.83235233128076
H          -0.13106155817240    1.76434025432041   -0.58186846183663
N           2.80396284019151    1.16264252170054   -1.18034482421204
H           3.22900867040409    0.47807688545711   -1.79306589736737
H           2.77589220533625    0.76769162733605   -0.24473231382238
H           3.41076378844775    1.97233593969086   -1.15431291570723
