    26
        -50.45521636  Gyration_radius:  2.43493942514 Dipole_moment: 2.509
 S           1.49819050132092   -0.75492386656200   -0.80698259404958
O           1.64203650852227    0.57808629621278   -0.26284223456778
O           2.36539586252061   -1.74044115724550   -0.25463107399993
O           0.02522837614953   -1.17914155673463   -0.64721858903352
O           1.64415465516887   -0.70575321330943   -2.33597698423944
H           1.15948716568025    0.13087862952843   -2.60255878961536
H          -0.32763824145319   -1.02395673819161    0.35536826632794
O          -0.78898658380770   -0.73150044914062    1.65302303155770
H           0.03437271580531   -1.00738287400521    2.15232735133091
O          -1.95564909741156    1.61869519420857   -1.19446657837368
H          -2.69809427175613    2.12806021501329   -1.52271991264625
O           0.46004584354487    1.56420092882141   -2.48326690184690
H           1.00573796645819    1.76863247784448   -1.71146733713268
H          -0.45997960777248    1.56334677499869   -2.15393709643928
O          -2.74219326402990   -0.83339685576579   -0.51314991550092
H          -2.57128146659646   -0.90743252662577    0.43338203250026
H          -2.30382616481463    0.71920419768574   -0.97738548853691
H          -2.03749918080202   -1.33527019729219   -0.93850877739198
O          -0.36618182826583    1.78439314220097    1.09358592352229
H          -0.96478684501159    1.94305480091906    0.34647334990270
H          -0.74489339166520    0.26315977940150    1.62337712395893
H           0.48038352016189    1.51341202493495    0.69596513615069
N           1.63607555002992   -1.30302746181763    2.50410143997846
H           1.88114856839764   -2.03763964981378    3.15655059673419
H           2.11189309544509   -0.45863671543686    2.79839044833650
H           2.01685962421232   -1.55662121986360    1.59256756305058
