    26
        -50.45109192  Gyration_radius:  2.49266896196 Dipole_moment: 4.671
 S           2.03689995351426   -0.68517373273856    0.81409794330947
O           2.38696910475870   -0.19228076725696   -0.60878971282159
O           2.77056633913356    0.03037511389091    1.79670747268994
O           0.59713532130959   -0.61956354092674    0.97860641324200
O           2.46120701780546   -2.16014291551243    0.75811719978710
H           1.93696644076354   -2.50956887626933   -0.01920584897206
H           0.41554947212705    1.02007314651550    1.33629392051155
O          -0.98377463617869   -0.90084837479548   -1.74677290940521
H          -1.62235809664272   -1.15283136967554   -2.41541738531070
O           0.41937080752750    1.99581131435563    1.26726559245770
H           1.24401632466548    2.27185805023751    1.67373883146718
O           1.12683542756956   -2.59207791558249   -1.41480529457161
H           1.75642426742791   -2.19961144367119   -2.02565222478656
H           0.32644123076785   -2.02402934746259   -1.45860356618383
O           0.53836074229499    1.32341200423953   -1.39397222465631
H           0.31677217323764    1.74002033448775   -0.54040910672661
H           1.68585448816442    0.47267111345274   -0.98213735203053
H          -0.12327103982770    0.62204700554016   -1.56141740862112
O          -2.09388450968740   -0.86841271241593    0.57623396297748
H          -2.35534469499133    0.07162900299852    0.72848075335436
H          -1.46945669979565   -0.92894240077643   -0.86288957339682
H          -1.23361437435064   -0.96536568140303    1.00776264527809
N          -2.54097578161050    1.79595741255666    0.96080600877372
H          -2.87351145512289    2.35764481041717    0.18710854638714
H          -1.59742720384766    2.10014251933605    1.18283889595412
H          -3.12575060906116    1.99720726053018    1.76201443131659
