    26
        -50.46328764  Gyration_radius:  2.4277765029 Dipole_moment: 7.586
 S           0.57063042543528   -0.26766882145557    2.03762819266726
O           1.24398329105834    0.63767225282398    1.08869113257166
O           0.56414783759099    0.20170170326260    3.37769289191841
O          -0.79077998785487   -0.54252426884016    1.50185798571828
O           1.32952043674265   -1.63026050079459    1.96987443923984
H           1.34610726213940   -1.90263105018381    1.02651366009973
H          -1.33285021307732    0.65510643552755    0.82942766050936
O           1.48677889395473   -2.35664913225754   -0.59619884870272
H           2.33697314707078   -2.78373135839326   -0.70962697207197
O          -1.30299313850605    0.12793019821775   -2.09821018781070
H          -1.74933633255943   -0.02833057388232   -2.93071740713728
O           0.42510493775070    3.06605553564243    0.71425068856647
H           1.02698022814450    3.44307810705419    0.06956815788310
H           0.85147378676938    2.22654257946186    1.02164371769055
O           1.45091744056270    0.09195728202895   -1.46593512732326
H           0.55726081167528    0.23927667110868   -1.80918255010228
H           1.43691146683367    0.38830720180717   -0.52555865541072
H           1.55477394720371   -1.45839766570364   -1.03336667608096
O          -1.26170828706890   -2.01595826509691   -0.64146650521035
H          -1.18798939907565   -1.58651019141983    0.23968648098130
H          -1.32576196891486   -0.74401354975668   -1.59542710239906
H          -0.41416790577551   -2.46509030802267   -0.76181302841650
N          -1.65472205694199    1.49438255078997    0.21414450976683
H          -2.57565995318762    1.80828368330554    0.49920310245656
H          -1.65182908755767    1.15012211821854   -0.76586750284866
H          -0.93376558241596    2.25134937655194    0.34318796344556
