    26
        -50.45061085  Gyration_radius:  2.4791988862 Dipole_moment: 4.884
 S           0.99566940131950    0.74554064195375    2.05503376286849
O           1.75788116415275    1.58211710118728    1.00243478326687
O           0.79457704972839    1.53711972302113    3.21167916501950
O          -0.37044600157607    0.46434090231036    1.34428539437590
O           1.61570371957733   -0.54151085072314    2.21397627447917
H           1.35803068072339   -1.54874450837524    0.97463100059762
H          -0.60484821797230    1.28867351385389    0.81147766506470
O           1.30963053526209   -2.06369821533000    0.13067967577942
H           1.80302428566043   -2.87125146036370    0.28342933614120
O          -0.13654003829131    0.82481219116117   -2.25345053379482
H          -0.38635230956713    0.92952746722784   -3.17207123839006
O          -0.66316146232339    2.47362113215282   -0.19921302638255
H           0.16781159391770    2.92256297594769   -0.01442604378077
H          -0.53208974768790    1.97297027193056   -1.03494043468004
O           2.21297912272022    0.18967058819539   -1.05224791847426
H           1.99854518007927   -0.71970358077737   -0.76207225344010
H           1.47320158688174    0.46611799705215   -1.62788360536265
H           2.02640838981771    1.01050065753982    0.18774738632058
O          -0.94144514093711   -1.48507658549983   -1.44491990926504
H          -0.50713414039424   -0.06854688958419   -1.96056488047809
H          -0.20100296457968   -1.81560167706788   -0.91348868255781
H          -1.68558179305395   -1.37222238419603   -0.80717093952273
N          -2.76325201483485   -1.06342485972205    0.52088289508870
H          -3.13510708896296   -1.84791936581153    1.04098846998218
H          -3.51804584457114   -0.40770675359788    0.36460253228895
H          -2.06845594507722   -0.60216801249934    1.10060113485974
