    26
        -50.45807543  Gyration_radius:  2.42086993544 Dipole_moment: 7.662
 S           0.43108071618243    0.75615039034894    2.02107631037846
O           1.67212973286418    0.73428863841760    1.26027719751579
O           0.53087695765085    1.18690387396278    3.37181196767692
O          -0.55877664613502    1.72600763150362    1.23499253441271
O          -0.26594673434340   -0.55945447173237    1.89364325599119
H           0.12642505601555   -1.75582471600278    0.87518954664862
H           0.01905006571343    2.22150985197701    0.59298185332808
O           0.24714233572044   -2.45880187644109    0.18500716275617
H           0.30891222442035   -3.28915042757977    0.65816492924095
O           0.53610574232820    0.56315712195172   -2.29570299210938
H           0.85284095563206    0.61583545459321   -3.19830107808810
O           1.10430609239854    2.61874964228346   -0.50897465227249
H           1.72372293844875    2.09738018912845    0.03092371148510
H           0.86928874082647    2.04686331229903   -1.26159348368790
O           2.17966129091937   -0.79122971780246   -0.83151427974110
H           1.22652802001479    0.03530352573983   -1.78525167075931
H           2.14705843427468   -0.24166986411036   -0.01698374377908
H           1.68619745955424   -1.59279238771666   -0.59787797522182
O          -1.41890545909975   -1.15816027902711   -1.56888677868034
H          -2.12601369722930   -0.50308169023155   -0.36284596500234
H          -0.80188649828393   -0.48895650742848   -1.93477860870627
H          -0.84891571542425   -1.80192026451195   -1.11025029615265
N          -2.39907196773133   -0.09099897819649    0.59602593007970
H          -3.27340587628355   -0.46907014506917    0.94414679425992
H          -2.41546784828004    0.92775558765903    0.55743142630994
H          -1.55293632021814   -0.32879390404595    1.25128889419024
