    26
        -50.46328767  Gyration_radius:  2.42799867263 Dipole_moment: 7.585
 S          -0.60629158780723   -0.42231358309289    2.00123930171542
O           0.46003964773947    0.52605778463028    1.63103178947259
O          -1.33766235741901   -0.04577820297993    3.15860890601333
O          -1.46322599673150   -0.62038596302159    0.80017460795036
O           0.08698045667023   -1.79850140945213    2.25164367347746
H           0.60799874318370   -2.00764656077054    1.44595523799540
H          -1.57550665469024    0.63635666932985    0.03310825956115
O           1.60027401688663   -2.35444235407465    0.12119916855356
H           2.38391687985595   -2.79795048558408    0.44872505121228
O           0.02168565606669    0.30932832912741   -2.45462748491044
H           0.09011705968258    0.22443122156380   -3.40584739833073
O          -0.05732287770529    2.99718435467475    1.05302005332649
H           0.79206709318226    3.39883188924531    0.86020456240009
H           0.14708286558723    2.12683805000195    1.47941708300815
O           2.00747824178482    0.14794924078469   -0.44956521123623
H           1.88140969601476   -1.43081826459702   -0.14420165861968
H           1.43545365006307    0.34537161808745   -1.20574749406065
H           1.48874654681522    0.38004471103712    0.35632232689634
O          -0.69830593333550   -1.92995747982984   -1.36508486401253
H          -1.11268484872528   -1.56403464206670   -0.55235200292675
H          -0.25620953943047   -0.59423070354563   -2.10804693041030
H           0.08696066993298   -2.39482671638605   -1.04603568860704
N          -1.52774796279267    1.52495060565917   -0.59510739655598
H          -0.99642677945306    2.24967641454440   -0.04569871872623
H          -2.46177695475846    1.84586927031752   -0.82425211053599
H          -0.99704973060407    1.24799620639255   -1.44408305264713
