    26
        -50.45019010  Gyration_radius:  2.49731239421 Dipole_moment: 5.270
 S           1.17688300035468    1.21210560775630    1.72785052403563
O           1.87303506734127    1.44583292992447    0.48246791783900
O           1.43782434902163    2.10211117310416    2.79491410427997
O          -0.34909792811992    1.17225929393196    1.39352180721650
O           1.43001300231499   -0.23307293596875    2.20113643485987
H           1.31705563226511   -0.88512564006417    1.44565459754177
H          -0.46042317954598    1.69034416733357    0.52338264487088
O           1.12242138003407   -1.98576365247489    0.33499336316457
H           1.18667152144685   -2.85298455873394    0.73823119298106
O          -0.27877436867339    0.21805576138306   -2.44847963476278
H          -0.30482547098397    0.24680903936133   -3.40557614640712
O          -0.30182899974157    2.37172538702880   -0.83178161615689
H           0.65559872931870    2.46170651749123   -0.72260667964352
H          -0.42874160718614    1.65320225608535   -1.48965524311223
O           2.13375349292909   -0.25825319244084   -1.57281313784998
H           0.66799520434862    0.01355953801200   -2.19615096517020
H           2.21711025989270    0.43302908214031   -0.88889262177306
H           2.03564941021537   -1.07990926543244   -1.07162563706938
O          -1.19396706384469   -1.77228642709561   -0.74143324042850
H          -1.81444263852459   -1.37944101918740   -0.07907337591530
H          -1.05046733969859   -1.08817772676483   -1.41582463459315
H           0.19363684064482   -1.93106805810907   -0.07489222814098
N          -2.71813694511291   -0.55232052453183    1.12787938869785
H          -2.00724149852599    0.09354079685478    1.45977465804416
H          -3.04182096671468   -1.09308928974639    1.91978309392669
H          -3.49787987344550   -0.00278926986236    0.78921543358020
