    26
        -50.46658028  Gyration_radius:  2.40001274057 Dipole_moment: 4.036
 S          -0.95109093491183   -0.66871948904297   -0.64490839355865
O          -1.26283897933566    0.66996351044532   -1.13082272490773
O           0.49576956374723   -0.92007309072397   -0.75217244648385
O          -1.40551287242023   -0.89085813216599    0.71560144984324
O          -1.66764807904856   -1.70729269987866   -1.54444268364419
O           1.92443895434841    1.01753000299979    0.31234450620192
H           1.49054671354315    0.30687067508574   -0.21674920782017
H           1.29095376790541    1.75627017019014    0.31699986607391
O           1.51849930054467   -0.07777662445132    2.53972018454246
H           1.32285999817077   -1.04675746072715    2.21837395997564
H           1.84645580949522    0.41121853496918    1.67325266733603
O          -0.36313313809157    2.51371956390584    0.43435392349705
H          -0.76015147541348    1.84036740458224   -0.18327091142323
H          -0.71899657961846    3.36272734869556    0.16811204408240
O           0.81121518135305   -2.26199129133845    1.47158613676723
H          -0.13638835001337   -2.29964557887340    1.65579547462808
H           0.84127677420174   -1.91378936145074    0.54965836236230
O          -0.79741085149307    0.87375942427972    2.55645426556430
H           0.56048645650325    0.34344505383537    2.69996201165194
H          -0.71303089308981    1.66323424919366    1.99021110835668
H          -1.19807951342899    0.19393137114607    1.96439689353995
N          -0.37421500206575   -0.61292702893511   -3.52071582784083
H          -0.40600332553418   -0.48191990652385   -4.52371733722329
H          -1.29980885188196   -1.48891063505606   -2.44245647998296
H           0.57411656794373   -0.83926560578732   -3.24793989563074
H          -0.62231024142745    0.25688961563340   -3.05962696588506
