    26
        -50.45331704  Gyration_radius:  2.44671658774 Dipole_moment: 6.613
 S           0.03287251066745    0.92322068425421    2.11981736256392
O          -0.27087139754310    2.13559116691162    1.14901126261504
O          -0.75909010292002    1.12605206949065    3.28434405272756
O          -0.44631898061223   -0.26543697691547    1.32929546205315
O           1.46504593550346    0.81790862214687    2.29257234754241
H           2.05194952246979    0.09689142878932    1.03381965249297
H          -1.45039581512251    0.18206452753715    0.53685170399678
O           2.44005330832189   -0.24311504599748    0.17675415601121
H           3.38635453257565   -0.29096304294562    0.32054199380553
O          -0.72084663580661    0.14803954292087   -2.37958511297373
H          -0.88027058074809   -0.04449497937973   -3.30392528811009
O          -0.66747687216410   -2.82343667454454    0.63573596062573
H          -0.61805961656707   -1.92696774327638    1.02160043307398
H          -0.20520364026013   -3.40129453907684    1.24482975544067
O           0.73752202330333   -1.73604620857396   -1.41255641601349
H           0.19655776441851   -2.25331727402526   -0.78231984473349
H          -0.16489082510583   -0.62134899356207   -2.02515102438444
H           1.40170750967719   -1.28444153521530   -0.86295931652609
O           1.11072821103094    1.78098424503221   -1.01693514347038
H           1.73396042831331    1.09179334573381   -0.71347839658211
H           0.50422522641903    1.33689034324715   -1.62965699859714
H           0.33678468017723    2.07713479713233    0.35786484313025
N          -2.18056795682261    0.68119733688606   -0.18968302489694
H          -3.12063935180239    0.31402967819409   -0.09495628184507
H          -1.78250983842663    0.50817995477312   -1.13936405719337
H          -2.13062002895540    1.67088525048177    0.04753194923263
