    26
        -50.45260136  Gyration_radius:  2.49719799133 Dipole_moment: 5.353
 S           0.65387423347680    1.04396784959327    1.94383818498931
O          -0.69497631477553    0.80506466510569    1.37702134061613
O           0.63050523497019    1.42253134590547    3.31421393210103
O           1.47408754990163   -0.16718523863629    1.68651186956450
O           1.28505544177453    2.19989514214073    1.10522179343601
H           1.25756679348147    1.94442471795632    0.15636213779761
H           0.46470810103187   -1.36074459664046    1.93453667697164
O          -0.77844592055063   -2.30198609878354   -0.74511883803094
H          -1.17744432206320   -2.92921142976489   -1.34846426781463
O           1.37568863857108    1.49523382598148   -1.46652836527547
H           2.20643724912260    1.82083766180629   -1.81765859065162
O          -1.09915442746171    1.75625049399383   -2.59516205246064
H          -1.42400721911219    2.62596366146443   -2.35620741575115
H          -0.17957697857794    1.70781330954142   -2.27523487575727
O           1.69299816837574   -0.97581553604118   -0.81384766584229
H           0.89769895604103   -1.52361445632318   -0.90613713893608
H           1.49977779147701    0.50695821820945   -1.32531518972022
H           1.74618360968205   -0.73450144867206    0.13876837037072
O          -2.02103535868733   -0.05076489555497   -0.80394692114850
H          -1.63551068875517    0.39039384295727   -0.02329001281338
H          -1.79557632046742    0.52697349031838   -1.56122023308685
H          -1.29210193724297   -1.43850959236284   -0.85073164874837
N          -0.54941619377742   -1.68247010574142    1.85729214858917
H          -0.88686949453212   -2.19287603142627    2.66495729878230
H          -0.68787129667688   -2.18712135988936    0.95633418454717
H          -0.96259529521021   -0.70150743511952    1.75380528828217
