    26
        -50.44598975  Gyration_radius:  2.51176839725 Dipole_moment: 4.293
 S          -0.14374634080770    2.15734960587403   -1.13544792394911
O          -1.05684847546696    1.04807490261092   -1.30298512366892
O          -0.69839236089776    3.45781605433112   -1.20080959702942
O           0.57162118259026    1.92996542340768    0.23532574486177
O           1.03600054425035    2.01804347293974   -2.11527501087978
H           1.24464571092582    1.03844901704890   -2.12221781238335
H          -0.09992690745544    1.50135871274929    0.87981658328231
O           1.88865051936666   -1.46021064693553    0.59399552437415
H           2.65039995257355   -2.02967747209462    0.70896680913405
O          -1.03209783045300    0.79224733876373    1.82645145089828
H          -1.92170580907969    1.04127732672627    1.57014905611756
O           1.06108011496012   -0.53006184043591   -1.83806942684106
H           1.43846273705564   -0.88052150119094   -1.00823867203480
H           0.12688038620713   -0.34852231721582   -1.65392486367912
O           1.99615043712165    0.63433555994750    2.22711520262364
H           1.87925863041472    1.34703029693935    1.58571000265139
H           1.18213903346529    0.61320496779046    2.74031189696836
H           2.00264823445239   -0.70296717583874    1.21975881107124
O          -0.81052052098873   -1.70015578896356    1.21753420697903
H          -0.96042984288147   -0.20239052067151    1.64198889250864
H          -1.32744342796436   -1.77948208570210    0.37841602480087
H           0.12217126537505   -1.81149704533288    0.97662450514939
N          -2.16593511196883   -1.61374053056497   -1.12200586779465
H          -2.03275955533889   -0.61877961154245   -1.28790686675947
H          -3.16203402620844   -1.79098709510123   -1.09528103496462
H          -1.78826851924789   -2.11015902757847   -1.92000251143368
