    26
        -50.45007691  Gyration_radius:  2.50577775136 Dipole_moment: 4.973
 S           1.08112208960766    1.58416502295365    1.52617494744505
O           1.73313447659825    1.69405871598819    0.23947777244931
O           1.22119062360529    2.67325551446077    2.41661439059765
O          -0.42254446252017    1.27400547592657    1.24523116749057
O           1.54334700424113    0.29118204202980    2.23039397698804
H           1.45304796735157   -0.49204252187105    1.61269484628901
H          -0.61084372091832    1.63189564084734    0.30801569143469
O           1.41181597272502   -1.72076818617735    0.60215335406151
H           2.06945407316489   -2.36896889658158    0.86080285472340
O          -0.39079641422145   -0.22406765906171   -2.41588946021553
H          -0.81264324304845   -0.44394492028423   -3.24701028439528
O          -0.55587846076072    2.12182483559882   -1.13082412322656
H           0.37746636091151    2.36707394178329   -1.06628877927523
H          -0.58015694476064    1.30646730733297   -1.68123603965991
O           2.17704377715452   -0.35000358850846   -1.43085713845155
H           1.37392520299423   -0.30048932592745   -1.97863729991770
H           2.20163147602377    0.48370338513337   -0.92344750493277
H           1.76163861279808   -1.27334155502048   -0.23553356545082
O          -1.12218578239243   -1.93419123325056   -0.61018377164032
H          -0.31040026587189   -2.04282111506692   -0.09455647143596
H          -1.76975333572151   -1.51517476131463    0.00678524880696
H          -0.71575814084150   -0.90011777932578   -1.74664491643759
N          -2.67797152748692   -0.63709016848414    1.18981574470277
H          -2.94369185426488   -1.13740143951219    2.02866180008180
H          -3.49814238368240   -0.15497108150509    0.84438620906094
H          -1.99405109987240    0.06776236313926    1.44990134522513
