    26
        -50.44611905  Gyration_radius:  2.5281044511 Dipole_moment: 8.289
 S          -1.43654436758757   -0.72616010784906    1.96085368699318
O          -1.52755302099563   -1.77165947249061    0.97727921457949
O          -1.51361077334265   -1.08266322040694    3.32703312079084
O          -0.12973809613005    0.08115062747884    1.66159595937087
O          -2.50595229853356    0.35646875630835    1.65323676370526
H          -2.48420598839766    0.56361612589664    0.67975097618178
H           0.63358089942649   -0.56246008344505    1.37444472410523
O           0.94748798810531   -0.66713139604023   -1.82829194055423
H           1.46461940615225   -0.50495491316898   -2.61766026286528
O          -2.45833187454390    0.87733439853298   -0.91170682038272
H          -3.35849602335089    1.04183453001322   -1.19694731252361
O           1.78696648782516   -1.24636726264987    0.74347384515239
H           1.48961002315136   -1.39192195252383   -0.16975354924175
H           2.41481947058109   -0.48197473322960    0.68807535296750
O          -1.69108962238967   -1.46131948301276   -1.64490343990204
H          -1.69881383574035   -1.80363319580899   -0.72770888278337
H          -2.20270904698757   -0.03004373828983   -1.28420340224960
H          -0.74909899315714   -1.36681223073043   -1.86451981342423
O           0.19437977677318    1.58907031142632   -0.60637979060924
H          -0.72575119230245    1.67293626008823   -0.89535178678551
H           0.12939855693766    1.24068324994451    0.30016728292993
H           0.72268190435246    0.21497060404144   -1.44258173212787
N           3.10514576453438    1.10186526286698    0.46660371088985
H           3.98989142393795    1.21734139838117   -0.01127825120722
H           3.19866403186165    1.49478548446083    1.39492018160309
H           2.40464938980927    1.64504480022112   -0.02614782457755
