    26
        -50.44611897  Gyration_radius:  2.52798430389 Dipole_moment: 8.287
 S           1.17434916212339   -0.21176295524119    2.23825142542939
O           2.09161930123942    0.45837071177969    1.35600482757064
O           1.20751217929437    0.11496069705336    3.61366094458684
O          -0.26218728803268   -0.02014678221643    1.64775466627087
O           1.33834812204745   -1.74662379925284    2.07254759316505
H           1.37047145033968   -1.96407475762450    1.10154173302466
H          -0.36737289823575    0.93806283872197    1.26019770355255
O           1.44584212334790   -2.30637922817486   -0.48219521748545
H           2.06650531372798   -3.02708796798047   -0.60093001911165
O           0.05459901225704    0.97751281344683   -1.93176837248766
H          -0.29065006590520    1.12361462576229   -2.81284065701897
O          -0.67495229615855    2.14998429753563    0.46497910193101
H          -1.62238806948523    1.96022286651281    0.24628482971536
H          -0.19246233167971    2.00262048519357   -0.36516363562189
O           2.50039456269046   -0.07791621622211   -1.20235529534116
H           1.77671134374685    0.43275783906334   -1.60221320194469
H           2.55499689866224    0.24834435575528   -0.28093677256804
H           1.90255234146815   -1.47522404769806   -0.83965743980914
O          -1.04791883419917   -1.14114893033295   -0.72924823563157
H          -0.36027964833908   -1.81292841287763   -0.84330888588599
H          -0.94475385948560   -0.84723244542589    0.19290766216577
H          -0.41142993775472    0.18643001873098   -1.56510988681570
N          -3.10959467986886    1.16782131949963   -0.19541713740136
H          -2.84287528436943    0.26868103477236   -0.58135380610891
H          -3.75870416352940    1.60746903085286   -0.83549289416446
H          -3.59833248387437    0.99367263834211    0.67386098996525
