    26
        -50.45188998  Gyration_radius:  2.46259515555 Dipole_moment: 2.888
 S           1.41547364967082    0.92332539489490    0.86452536212827
O           1.02534932856113    0.13279142136194    2.00576185223916
O           2.68690708363300    0.62813960110272    0.29302593137049
O           0.31463457644249    0.78220383461045   -0.21515437789785
O           1.30624255804435    2.41779402597452    1.19837507109201
H           0.38573543627328    2.47978587768408    1.59309272291393
H           0.19638585037178   -0.19433477973649   -0.51813467956444
O          -2.56304035365577    0.35995273240898    0.61547429900627
H          -3.46415610506874    0.20873695920872    0.90601108130578
O           0.03502777508411   -1.56740975284532   -1.11806925627196
H           0.90478536393419   -1.56168829360038   -1.60514284270732
O          -1.00580051195091    1.97634173942289    2.21030534089873
H          -1.60102471359713    1.57722043989093    1.54376815604608
H          -0.58771003709438    1.23167225926540    2.66160441638526
O          -0.99112622382243   -1.56717956455359    1.46809737670547
H          -0.22584862241592   -1.07031792283640    1.81303553101219
H          -2.02770657575822   -0.41165392107087    0.94805562805756
H          -0.68008556370007   -1.97712335156000    0.64998667472408
O          -1.87545898951919    0.05426090588391   -2.06247377208501
H          -1.36315108027663    0.84316865163983   -2.25082339102019
H          -0.67215705812281   -1.26665961776987   -1.72530120042356
H          -2.22103310329875    0.19016521173835   -1.16090063070107
N           2.48886812446086   -1.14173224829715   -2.01766663736099
H           2.66041499481596   -0.63686198783606   -2.87876946266536
H           3.15625534357910   -1.90211739542279   -1.97327435148967
H           2.70221885339740   -0.50848018958176   -1.24540885168241
