    26
        -50.45018999  Gyration_radius:  2.49739167982 Dipole_moment: 5.275
 S           1.26003365182464    0.83920432542598    1.88444638020568
O           2.00151487192682    1.16472216428978    0.68668173768856
O           1.58926200419471    1.54519944431576    3.06432148413221
O          -0.25494027997566    1.00426503103009    1.53829281792979
O           1.35418341742174   -0.67495078592448    2.15823897639173
H           1.18861318479343   -1.20444372808827    1.32099039077782
H          -0.29466322854587    1.64327006937013    0.74569053941437
O           0.90327502524079   -2.11912755757670    0.07033150788306
H           0.86927169751875   -3.03457721534523    0.35245169230468
O          -0.20359162571731    0.57310225458038   -2.39798791277623
H          -0.20723370129347    0.73128394016653   -3.34269999539696
O          -0.03907701947296    2.48013151262462   -0.50317692637987
H           0.92006757836160    2.45325790448128   -0.37614984732740
H          -0.22541667129241    1.87422419830265   -1.25365767025184
O           2.12805881082318   -0.26749271122432   -1.57854688044312
H           0.71157937993152    0.23848658680493   -2.16935336412795
H           2.26849239817465    0.31358733781559   -0.80712917603475
H           1.93465781372176   -1.13368321598821   -1.19348382736380
O          -1.35493798250731   -1.52163520252202   -0.98429537848952
H          -1.94533863011529   -1.15850946062998   -0.27881569886114
H          -1.12731535093962   -0.77182214145831   -1.55822322099379
H          -0.00601807247256   -1.91272372007226   -0.33519130013078
N          -2.78282745710187   -0.41063581639061    1.02337314378983
H          -3.17675160513440   -1.01587560606657    1.73247440848879
H          -3.49474328026597    0.25795845171675    0.75721592467501
H          -2.01615490907480    0.10678394037157    1.44420218490473
