    26
        -50.45937195  Gyration_radius:  2.50013024659 Dipole_moment: 9.324
 S           0.69239120121944    0.43869053040114   -0.90937273876747
O           0.95004165267626    1.19342928928518   -2.11068741344461
O           1.68463247287797   -0.53524769494728   -0.54741281353412
O           0.38698601545111    1.35014836634618    0.23350246823827
O          -0.67154279260275   -0.29365728044296   -1.16803949451113
O          -1.37785143533068    1.64237355339089   -3.07488439062297
H          -1.67293370785449    0.75449164257777   -3.29421651801992
H          -0.40908995817522    1.53509727656653   -2.85659941124424
O           2.55941731857898   -1.46863468286990    1.94206665068315
H           1.82598044865034   -1.02918514552581    2.39534707679822
H           2.59016963257438   -1.04926254776441    1.06987924406106
O           1.15623900920030   -3.13188255561757    0.28648899575902
H           1.41199992505719   -2.46183039788274   -0.36431420308922
H           1.72780104014187   -2.92737149554962    1.04934842528653
O           0.29044534503733    0.09191953803936    2.53329428181950
H           0.40894413724786    0.59643787910955    1.69449846013271
H           0.38138516446206    0.72206446363846    3.24931192743236
O          -0.99545190050397   -1.74140852897828    0.88126641243723
H          -0.83832496013233   -0.91077209298269   -0.36880785369103
H          -0.29477139295584   -2.42493541167390    0.70300041706381
H          -0.66290999226198   -1.22442623155173    1.63044172324487
N          -1.86047180329543    2.19501776254216   -0.58070707786281
H          -1.77389277063527    2.00263340797499   -1.64517185060441
H          -2.57883835299103    1.60123678478153   -0.17551024879280
H          -0.87766301679424    1.89934550377445   -0.17273853382729
H          -2.05269128964489    3.17572806735723   -0.39998352494585
