    26
        -50.45189004  Gyration_radius:  2.46267581631 Dipole_moment: 2.890
 S           1.76525849266995   -0.34629023813260    0.60663192594746
O           1.29827047813656    0.26556374739956    1.82614023849639
O           2.05638150059849   -1.73984815456597    0.66699571587094
O           0.71090085406176   -0.08247445280949   -0.49614205584541
O           2.96643005606055    0.43372644012514    0.05385847265277
H           2.63235036995666    1.37972160070288    0.07481613576904
H          -0.20505629260357   -0.48646350947348   -0.25672547158821
O          -1.54493750264094   -1.14693947626919   -0.05734971603767
H          -1.21573809990043   -2.07675845667034   -0.20162882464125
O          -0.93741007596123    2.45244268340925   -0.42830986096948
H          -1.45848789327206    3.25536273864115   -0.37286349653563
O           1.67141042849625    2.61090142391803    0.43832976269544
H           1.46738490013264    2.25165466211916    1.31147896595123
H           0.82562118026181    2.59780606863012   -0.05388307332822
O          -1.29504880872982    0.97922478310800    1.71972403150781
H          -0.38126789986840    0.72840230531843    1.95123243083913
H          -1.13522596402386    1.93200504186346    0.39782666416710
H          -1.69866402786466    0.17366309931183    1.37001358206249
O          -1.63892746335244    0.43817984775057   -2.21366807030198
H          -0.80642004661244    0.21619698043738   -2.63552531191753
H          -1.89230318130061   -0.79695696737285   -0.90362135092518
H          -1.43979503874532    1.21742330264075   -1.66248511394050
N          -0.15022111848465   -3.38480619723065   -0.30028969505568
H          -0.35792229676405   -4.15069712566161    0.32896320535001
H           0.70067474510076   -2.93594688433768    0.04251237410024
H           0.06274270458351   -3.78509324280240   -1.20603144434763
