    26
        -50.44816314  Gyration_radius:  2.51802503339 Dipole_moment: 5.259
 S           0.40999676318847   -1.47245753653202    1.90706123827197
O           1.70302955237388   -1.00570099666493    1.46028601841446
O           0.14619153893764   -1.36690713676591    3.29515943333138
O          -0.67819916584260   -0.67445869961671    1.10338539845505
O           0.16468127159911   -2.88784403633880    1.38010295513549
H           0.62077313422122   -2.90524198572548    0.47645944028916
H          -0.54053263285243    0.30749917499694    1.27013158378192
O           0.63366321366509   -0.42281823857829   -2.11142267281817
H           0.68872474553847   -0.44257513142415   -3.06774273556412
O          -0.05678988694294    1.79811336237291    1.46084357715035
H           0.34458274723695    1.86645392014056    2.32977979038913
O           1.53466667640048   -2.56987938307696   -0.74417957383628
H           1.16383019275129   -1.85767191455112   -1.31164466462953
H           2.19716733335631   -2.13334441783549   -0.19406191483299
O           1.84663189710171    1.13173088147386   -0.16296002420678
H           2.04039872632995    0.38087702085088    0.42725026200120
H           1.46528453365987    0.72735166728876   -0.96111528160160
H           0.69759276148526    1.71849896567448    0.80298020187199
O          -1.85548201721648   -0.25671962644652   -1.40355954054180
H          -0.34227545756599   -0.36352769594289   -1.88576644939621
H          -1.77924501115817   -0.65892603968070   -0.53028323787098
H          -2.01786958097235    0.70379268981799   -1.23026530358018
N          -2.10107768468852    2.34748178519278   -0.69049476191571
H          -1.72924377871629    3.03318409041611   -1.33551403016593
H          -1.52306862726686    2.36209783925986    0.14381152765336
H          -3.03343126282128    2.64099141158408   -0.42824124490872
