    26
        -50.45189000  Gyration_radius:  2.46276911291 Dipole_moment: 2.891
 S          -1.16490801955973   -1.19820583638401   -0.90064725788522
O          -0.33736877746631   -2.21304652107433   -0.29663418749194
O          -2.50624369733582   -1.10922000115699   -0.42809199371279
O          -0.45806323691287    0.16734078716770   -0.71949691892754
O          -1.13785099227139   -1.33943181012402   -2.42925482885471
H          -0.15433119977096   -1.39860835459698   -2.61887441074554
H          -0.32663172267561    0.40427922015633    0.27373125421164
O           2.56191292650863    0.30447086466444   -0.65015628285572
H           3.51992338052661    0.31569517019096   -0.61326709580134
O          -0.20069052071925    0.89774439361403    1.69150601883466
H          -1.17441046488519    1.06759056411372    1.82126002444217
O           1.41240704488967   -1.56206310160974   -2.31687499693943
H           1.25435956191615   -2.19240145559482   -1.60221818683315
H           1.80677872192990   -0.77523293442044   -1.88899089092938
O           1.09642788774925    2.56423586979052    0.04498892256823
H           0.45983505656962    2.64308661288622   -0.66832470509005
H           0.23296339131282    1.72967785647371    1.41005012729178
H           1.69314077773377    1.84425423272652   -0.23113216829586
O           1.59014121738755   -1.19224991659411    1.28057727293928
H           2.25819723140772   -0.25537725553460    0.11593526428611
H           1.08559557772939   -0.56385705208754    1.81409762407425
H           0.92159354915043   -1.72529719006883    0.81107726821959
N          -2.84600798687894    0.96554257691037    1.59441531094149
H          -3.34681810577466    1.76197760441867    1.21927404529345
H          -3.36443538794676    0.63169499663827    2.39774970050370
H          -2.87551621257595    0.22740066950155    0.88930109071558
