    26
        -50.45189002  Gyration_radius:  2.4626971801 Dipole_moment: 2.889
 S          -0.77958023018005    1.46420702913488    0.92247839421875
O          -2.00190527204413    0.71710148123106    0.75690252998589
O          -0.28867412502063    1.59050880945206    2.25419032115794
O           0.30436996634393    0.81426769056569    0.02806363684592
O          -0.91331206735646    2.84368729247258    0.26200922201630
H          -1.26881168802709    2.60962620723163   -0.64672716882065
H           0.48322278777528   -0.16497874526975    0.29044608993550
O           0.90544257431213   -1.55905614414909    0.67612195100159
H           1.36279128039523   -1.29092368491822    1.52034379017905
O          -0.48751736751299   -0.53311541862336   -2.56071784252757
H          -0.76880531876699   -0.96927984765460   -3.36689654206147
O          -1.90453211519396    1.70501645404359   -1.80822761597305
H          -1.27801207594720    1.04572852893912   -2.16964240455500
H          -2.46065027180922    1.21842134353032   -1.18611813347392
O          -1.62805518881638   -1.64896132710035   -0.47108163036676
H          -0.87886246575836   -2.00389895977188    0.02575755044630
H          -1.92889581123932   -0.87296713413956    0.03762310743541
H          -0.93270234545875   -1.01505133529824   -1.81103074148707
O           2.10716551165375   -0.85854779036210   -1.61240847680782
H           1.24116818479485   -0.76016267078285   -2.04953228557119
H           2.38073558147765    0.03712781600948   -1.40442118277706
H           1.56736641273285   -1.60503380196057   -0.04428669958038
N           1.77710851798074   -0.37259670405377    2.87709881612570
H           2.69101121798017    0.06153626115292    2.92342763424244
H           1.61200433544244   -0.82869357552702    3.76610525552109
H           1.08792993225860    0.37603820595327    2.79052242474980
