    26
        -50.45188995  Gyration_radius:  2.46262281126 Dipole_moment: 2.888
 S           0.08991197808638   -0.10804608923752    1.89347511921321
O          -0.35115436501662    1.26369513572998    1.83558929008772
O          -0.83511353840939   -1.04974334679312    2.43008382875102
O           0.50179217283158   -0.53977397401849    0.46462727843269
O           1.43715259450826   -0.19648809739905    2.62419975362700
H           1.97631361149104    0.51159675372987    2.16069523141954
H          -0.28324626267163   -0.47461755448938   -0.19783994308087
O          -1.39544649354262   -0.53562209015946   -1.21325831831800
H          -1.85374208491170   -1.32136938500799   -0.80543951691951
O           1.64646669483289    1.50140437534523   -1.45287346918573
H           1.98980753136512    2.17200071986512   -2.04590912671683
O           2.28030563222702    1.76889688693991    1.21311329728649
H           1.44124657402621    2.19424399088794    1.43239348938984
H           2.22378796888355    1.55558655612344    0.25964562928989
O          -0.78663006982370    2.12541795910363   -0.67690707973033
H          -1.32337449504844    1.40505520841689   -1.03339566287147
H          -0.74394480507263    1.96213812347016    0.28382268025207
H           0.72032721989808    1.78294906967450   -1.21705289920916
O           0.94729421941867   -1.01092464063152   -2.42028549704034
H           1.35362804976701   -1.61102472312399   -1.79170625215029
H          -0.79295304859173   -0.84922606255320   -1.91892314766465
H           1.26982675082148   -0.12669214347202   -2.16575756950582
N          -2.32287543007451   -2.45853232411206    0.35349100768520
H          -3.31680089070969   -2.48382417138185    0.54647613914759
H          -1.86651915968769   -2.06055667515056    1.17594284441762
H          -2.00606036462812   -3.41654350177015    0.26579291340815
