    26
        -50.45189001  Gyration_radius:  2.46264034225 Dipole_moment: 2.890
 S          -0.03699028699466    1.60685640355686    1.01037917279091
O           0.41337169847283    2.20701942275437   -0.22113467126834
O          -1.35168624018248    1.94994245351093    1.43974701761443
O           0.07800093333635    0.06969320216889    0.86444868392266
O           0.98283621397008    1.87058009557681    2.12718664195260
H           1.84639715925452    1.60012845415386    1.69359753674135
H          -0.50311703749917   -0.28784457479977    0.09367861419448
O           2.24967345736801   -1.11957157326784   -0.87314561409254
H           2.93582701852948   -1.46922190098330   -1.44430579256183
O          -1.41392284003948   -0.92177842345336   -0.92588942553023
H          -2.25620053676392   -0.75117141582532   -0.42064177688316
O           2.85398811098692    1.17757250246643    0.51977574229753
H           2.70645601249564    0.26630543458606    0.19480486432520
H           2.41901115240461    1.75395464084362   -0.12182461136752
O           0.62902833984923    0.43718134956405   -2.23767920922667
H          -0.21960140020057   -0.02151143346571   -2.17827436592639
H           0.54393208855594    1.21084793048944   -1.64971995168021
H           1.66013864116732   -0.56241727006769   -1.45158479312448
O           0.23169035326953   -2.77786285830124    0.08320327261623
H           1.00580155359751   -2.28978032931921   -0.25325805837969
H           0.19240476966127   -2.56264754858082    1.01724098838657
H          -1.09352491437672   -1.82321949679060   -0.71602206826651
N          -3.33216342011686   -0.05252693518381    0.67922767179714
H          -2.74901179410160    0.71169599194161    1.02409918372395
H          -3.63696412850276   -0.58707445589992    1.48377995903752
H          -4.15537491410222    0.36485033434825    0.26231097897845
