    26
        -50.45061091  Gyration_radius:  2.47865066062 Dipole_moment: 4.879
 S          -0.26098715513392    0.11637014517864    2.38389224114789
O           1.26718251254490    0.27545182692016    2.21696408562480
O          -0.69306506167832    0.93809442795082    3.45296281546634
O          -0.81199973382166    0.66016038579834    1.02320089636555
O          -0.61808994340619   -1.27568085547925    2.41142972683012
H          -0.52745311295157   -1.99727833214539    0.96624532124751
H          -0.22380417576846    1.43384549690399    0.75180681783139
O          -0.30211919613580   -2.42711489399950    0.10356903318042
H          -0.49339475809832   -3.36000408618306    0.21345092204885
O           1.69698557846170    0.61852625737990   -1.58459970480979
H           2.15213283042783    0.80105991859053   -2.40725268647218
O           0.94506012651033    2.36643274165331    0.31159490924811
H           1.56925313646796    2.24303469975419    1.03365178693994
H           1.28545760381711    1.84157927225017   -0.44670603857715
O           2.10134631581598   -1.22435712367978    0.36681131741801
H           2.13248544807415   -0.59379297354024   -0.37908481864001
H           1.64274985260479   -0.38713878129300    1.52250062087996
H           1.33768851130749   -1.80934495290380    0.18854366414837
O          -0.44603291074645   -0.70991703627454   -2.11378192835739
H          -1.23588169686630   -0.14046280936399   -1.95547015785707
H           0.84358468886774    0.13863507033952   -1.83516854469960
H          -0.47774003446309   -1.38540564196916   -1.41906070585496
N          -2.55269198231177    0.82507041486038   -1.35976810594037
H          -2.59007028757659    1.79245447121417   -1.65460137692361
H          -2.24856460359817    0.80912791067792   -0.39090951395369
H          -3.49203196235720    0.45065444735654   -1.40022057630325
