    26
        -50.46658030  Gyration_radius:  2.39994757889 Dipole_moment: 4.038
 S           0.69425179356284    0.93837208264925   -0.63696091324959
O           1.09086743354948    0.28593699892745    0.62212950599954
O           0.60352302842035   -0.03752879020784   -1.70760975806663
O          -0.54572231906558    1.68080546878757   -0.44587850976196
O           1.82024977705994    1.93322119537891   -1.01562509891740
O          -0.28617756096629   -2.94395142102221    0.10888607949879
H          -0.56403312591578   -2.29671517314785    0.88454866286580
H           0.70549161349191   -2.69482204675839   -0.07837381653541
O           1.99265572565515   -1.95534782363259   -0.38230074726841
H           1.83657730254996   -1.13216068428965    0.13739154432539
H           1.90749591255318   -1.65158835143401   -1.29546409037248
O          -2.57260467298587    0.12603997138377   -0.08108462084714
H          -1.82951497491149    0.76723075969028   -0.25205043114215
H          -3.38125381538166    0.63900642058858   -0.11656891188191
O          -0.88186628686272   -1.08625535878782    1.69602958761059
H          -1.66106581548967   -0.68403594371945    1.27397048664706
H          -0.12307157585808   -0.50786717481793    1.44498674401914
O          -1.42647168298815   -1.69628307579155   -1.73853286396102
H          -2.07871911559059   -1.14958035512874   -1.26240788764359
H          -0.68243738064950   -1.07617294792536   -1.92565343455592
H          -0.81489824961364   -2.55657691616361   -0.72233311640174
N           1.25585307114589    3.13631131556052    1.22260098426514
H           1.81606396878752    2.55326512625676   -0.23786236348519
H           1.32278396481799    4.03090611985224    1.69104993831962
H           0.29348926998945    2.97409934782448    0.94303061477348
H           1.50853372470461    2.40369125592286    1.87408242569718
