    26
        -50.44878063  Gyration_radius:  2.43962428341 Dipole_moment: 7.384
 S          -1.08166934465172   -1.79146049889841    0.86113645734930
O           0.25853885825703   -1.98856935955816    1.36183341611598
O          -1.73529663364036   -2.95432237588092    0.37793033611839
O          -1.92921061385948   -1.07386922674628    1.91709956782006
O          -1.01111063432923   -0.76689352828002   -0.31675236947497
H          -1.27346323006988    0.18025929753462   -0.12776319816787
H          -1.42978517396227   -0.22879144805391    2.22908972323217
O           1.54176279213918    0.32740002421584    1.08731347859680
H           1.29704037227560   -0.58043444827653    1.33950627250846
O          -1.63532905914726    1.73588416453626   -0.09697237001661
H          -2.38093515247619    1.87469573648868   -0.68301227280015
O           1.71101955008170   -0.27027178466872   -1.64564773650857
H           2.60317869940763   -0.54338132045626   -1.86936215584800
H           1.20107555322548   -1.10403555526070   -1.56354499804915
O          -0.66976395153056    1.07419161154386    2.37359181141762
H           0.23017757491503    0.91426018304630    2.00047285269427
H          -1.12106521807863    1.63663209760464    1.72904339641521
O           0.73267299738375   -2.76359580076263   -1.17842257756060
H           1.60909372500353    0.28831650884220    0.11827527544882
H           0.81026221999209   -2.69571182113550   -0.21488142575247
H          -0.16467700976809   -3.07385215673427   -1.32594025882784
N           0.56099184676437    2.41761545834196   -1.33795389859865
H           0.55527271486955    3.04236223601450   -2.13403750471850
H           0.89652380535642    1.50827692427339   -1.64993930358662
H           1.23139653663840    2.76962828684232   -0.66528181597322
H          -0.80670123482685    2.06566678538414   -0.58578070179598
