    26
        -50.45192247  Gyration_radius:  2.44665432783 Dipole_moment: 7.012
 S          -2.00070699992627   -0.62795735802306    0.41508129038352
O          -2.11331290273907    0.61131366542807   -0.31502500462998
O          -2.47996334782209   -1.78393195504446   -0.26396991370438
O          -0.48500652971603   -0.84207203767718    0.76321528645762
O          -2.61955517256697   -0.49010444604421    1.79906251306606
H          -2.01025995884697    0.13797162157525    2.34348433825726
H          -0.12073242197693   -1.33941479607559   -0.03817881322012
O           0.03187247515925   -2.01332272670353   -1.43806719974453
H          -0.84342540817590   -2.42082862146966   -1.43857564422022
O           1.66977029311641    1.42895681237427   -0.79818703335219
H           2.39403985312603    1.95503216502929   -1.13991854398264
O          -0.89948425634163    0.96167337009710    2.94566803768206
H          -0.68959811897824    1.62271927466319    2.22629050061914
H          -0.15342513023522    0.35728646648047    2.97138785743646
O          -0.41235161196763    2.36524667929243    0.80245007279315
H          -1.13677526837223    1.93292896064712    0.31707599119589
H           0.39460799702572    2.12041250520158    0.32053099257174
O          -0.35121649136548    0.38957415919802   -2.36954697041183
H          -0.06310669532740   -1.17793452414453   -1.97779495759443
H          -1.13760913744012    0.57791401270857   -1.83072282794161
H           0.37183457027438    0.88526552908344   -1.94471648142580
N           2.61200425145361   -1.03016323335819   -0.24637864875218
H           2.04212205951692    0.53973349337403   -0.55454611982549
H           3.57616780888491   -1.27989368750599   -0.42874760190140
H           2.40208328068292   -1.27016758055922    0.71452411236095
H           2.02202686255958   -1.61023773855615   -0.83439522211377
