    26
        -50.43579775  Gyration_radius:  2.645290753 Dipole_moment: 7.822
 S          -2.16075191760833   -0.21280525540026   -1.77918894268843
O          -2.57777356642033    0.60877355284383   -0.67585255126858
O          -2.89741019359346   -0.14462998935294   -2.98525411542102
O          -0.64028245101917    0.09012215061226   -2.04151725338476
O          -2.09627440872732   -1.69678299188510   -1.32632962113175
H          -1.54150000438508   -1.75651791370189   -0.50377907845824
H          -0.43554701861236    0.94236634914014   -1.54738926918557
O          -0.42347718826073   -2.02730055603929    0.65318856389331
H          -0.42628696651600   -2.98018909652566    0.76132415116260
O           0.65563896504017    1.91090310743805    1.84422709984158
H           0.41918164297503    2.60562498570881    2.46045991631625
O          -0.49438204956669    2.21346062491772   -0.62087600371298
H          -1.42903151459911    1.98085132247387   -0.47852569527999
H          -0.06869249380565    2.11674308240305    0.25501099017425
O           2.47043983361174    1.23785742962084   -0.17234062070375
H           2.07934036161721    1.78601942105290   -0.85724850109565
H           2.02652117756602    1.49416987035453    0.64873229585263
O          -0.20205627427349   -0.40590049749028    2.82267971005852
H          -0.42193648257595   -0.95729244333520    2.04650398468534
H           0.45225962591899   -0.89164566389310    3.32809186624945
H           0.30272352922786    1.07002574593259    2.22046954768414
N           1.57946670416785   -1.40640033958309   -0.84636095159316
H           1.07822369269030   -1.16033959903929   -1.69428231870861
H           2.30090225101165   -2.07531664791062   -1.08316405647942
H           2.03481781524467   -0.54928781262299   -0.52273992523217
H           0.41588694090945   -1.79250885568038    0.09416079841278
