    26
        -50.44803306  Gyration_radius:  2.47707357485 Dipole_moment: 8.059
 S          -2.11920203793477    0.71219928954559   -0.07930175634182
O          -1.20719905624257    1.01873466284388    1.00028356948852
O          -3.13745297114598    1.65437573094307   -0.34908435533057
O          -1.25892461724719    0.42631434229347   -1.35326266519938
O          -2.73300917454400   -0.67866267823594    0.16658199426735
H          -2.01350385007183   -1.33785388689819    0.40163527375121
H          -0.81161597376899    1.29015748952314   -1.63877727514390
O          -0.91008258696218   -2.44970655170520    0.64851318262743
H          -1.28447897941036   -3.29992892476770    0.41163759468266
O           2.39755228143340   -0.06268731766399    0.75676486624603
H           3.21290993745441   -0.00197448592384    1.25639037414477
O           1.10208996788308    2.34690403920037    0.43633212358400
H           0.26281441735987    2.06583227651522    0.83783161365655
H           1.67333257316651    1.55634628457564    0.47778707736930
O           0.06121648537077    2.51864090535763   -1.93372796090058
H           0.51991139426201    2.60565287551991   -1.04864257154807
H           0.74999212686054    2.41302974783190   -2.59329828051166
O           0.39470167104299   -0.67100678430897    2.36241372743546
H          -0.21867179219453    0.02029079758025    2.05273406973225
H          -0.00291378350001   -1.49932284249555    2.06656163119294
H           1.69488791230259   -0.32220904502550    1.41153217441477
N           0.81418092446315   -1.67367246807013   -1.14321864847701
H           0.22599734334953   -0.98541355928080   -1.60219919759457
H           1.54329322456367   -1.16932740853318   -0.64474101334400
H          -0.20581055802919   -2.22345655803514   -0.05259897464191
H           1.24998510164256   -2.25325591027363   -1.84814658400268
