    26
        -50.44878024  Gyration_radius:  2.4394503177 Dipole_moment: 7.383
 S           0.02490455558608   -0.35697159306686    2.23477889725871
O          -1.17953180004238    0.42358961638309    2.07364848044532
O           0.83866547785267   -0.01040257612328    3.34411839037194
O          -0.32187975959410   -1.84942177741266    2.24228345870389
O           0.88927183954160   -0.18312485206132    0.94443509637705
H           0.87007900335584   -0.91955013060221    0.26688186315395
H          -0.89667487418709   -2.06315439914100    1.41449335813573
O           1.01940031826764   -1.93445196633579   -0.95755781838364
H           1.93361585484766   -2.22024105836900   -0.99133102474945
O          -1.80704710186144    0.36641591514091   -0.51230251837214
H          -1.83242204836449    0.49581381756310    0.45229059395816
O           0.28009088987404    2.19631999567255   -0.89726939261497
H           0.54856336788206    2.19156397821134    0.04609681385664
H          -0.07447774402047    3.07420078697642   -1.05241223172715
O          -1.51008053962013   -2.22410925232604    0.03872647732722
H          -1.75419523735345   -1.31693668062806   -0.26507786211048
H          -0.74107545543611   -2.47653462111305   -0.49073174317139
O           0.57479652723467    2.45370384185874    1.79270478083585
H          -0.24012976442877    1.97388325984422    2.00408789768153
H           1.24504559743490    2.04417283135291    2.34611525921130
H          -1.07640578544076    0.93824546240858   -0.80292969577111
N           0.64573442520597   -0.06292975637236   -2.74289456995405
H           1.25734313272477    0.04795155821917   -3.54142743199274
H          -0.30835667957690   -0.10813134189581   -3.07979939904958
H           0.89294761507901   -1.25240330873174   -1.70114153683789
H           0.72181819505235    0.77250225053861   -2.16578613259325
