    26
        -50.45578144  Gyration_radius:  2.41877879208 Dipole_moment: 4.902
 S           0.88479043887426    0.25291283787366   -2.14437307126914
O           2.12914985128614    0.90401753540187   -1.83204838309621
O           0.59528203318780   -0.08809322751165   -3.49564628216735
O           0.94577483349473   -1.15999185026189   -1.33065209531451
O          -0.24953453296623    0.94426482120625   -1.47510173816231
H          -1.65789361712259    0.57987034053675   -0.93655211768119
H           1.48396912044481   -0.87165207700800   -0.55563880819285
O          -2.50697080960104    0.28367427193229   -0.49445572788397
H          -3.21488811288451    0.55516192830937   -1.07979243214565
O           2.20794171514034   -0.20374147886616    0.76835260080048
H           3.08194522217991   -0.09473829819953    0.38565874504809
O           0.01256739279455   -1.19674365003336    2.23415770944507
H           0.91722040056594   -0.99947887141149    1.95299473924413
H          -0.43556732626576   -0.31616369612536    2.30627607965935
O          -1.16831257459192    1.14542818963336    1.89611031381040
H          -1.78492751165855    0.99745824139691    1.16579987739549
H          -0.45733265542642    1.69472765166424    1.53652689863449
O           0.99969494955539    2.11619284600783    0.41145617675937
H           1.65903217907483    2.69034792073166    0.01566867165712
H           0.50862176695307    1.72961639144007   -0.36882209902075
H           1.79618624776054    0.70070529212825    0.72432369226226
N          -1.17210451035756   -1.96415913135010    0.05738076968033
H          -1.90030253371697   -1.23692439099911   -0.12135879815522
H          -1.54515821279100   -2.90432079732774   -0.00810515948831
H          -0.40307539124368   -1.79781527631018   -0.63836147203170
H          -0.72610837268742   -1.76055550284650    1.02620194021255
