    26
        -50.45578152  Gyration_radius:  2.41878104058 Dipole_moment: 4.903
 S          -0.07926827791051    1.45798313670046   -1.82037954351257
O           0.04111959826368    2.72073178410162   -1.14147845012262
O          -0.13213879485625    1.43224137008883   -3.24251437586939
O           1.27164660098032    0.64074820303084   -1.40892407931590
O          -1.14321111608891    0.62751250254332   -1.19514986859390
H          -1.46760605300796   -0.87904273909843   -1.01755693544814
H           1.41132237275641    1.01260355843835   -0.50577876925258
O           1.40147683031106    1.56225104065603    1.05012262580787
H           1.69507593482245    2.45736963165116    0.86361536825086
O          -1.58100437987514   -1.85459479679239   -0.81884605359598
H          -2.25603788522505   -2.16739360064887   -1.42205305445176
O           1.34872961508373   -1.15345267236452    1.80886234374932
H           1.59743987258754   -0.22034435957967    1.74714149280714
H           0.38376215775772   -1.15149194013726    2.03322004827360
O          -1.28918224523661   -0.99230578703151    1.90467053475665
H          -1.44929522672682   -0.04098681390738    1.82813640953009
H          -1.58107991170177   -1.37891552607058    1.06750118990016
O          -1.23428744559780    1.69531812543060    1.11667057875539
H           0.41767302196547    1.63815826795421    1.17638373150848
H          -1.44688266922782    2.62428020733467    1.00312839467203
H          -1.26704094429865    1.31977705744024    0.19070812861006
N           1.08606196090373   -1.90202840326875   -0.66113360717008
H           0.07360078881541   -2.13761163405486   -0.76274741072524
H           1.68773401731880   -2.62757923884191   -1.03388616517479
H           1.23217032365860   -0.98293125368993   -1.14792497941484
H           1.27922185452153   -1.70029610987735    0.38821243603477
