    26
        -50.46544175  Gyration_radius:  2.54257306388 Dipole_moment: 6.083
 S           1.45268337173488   -0.81159779335206   -1.49908684470971
O           1.66926453022159   -0.20979900677734   -0.18856407873825
O           2.16605275280838   -0.16015602815171   -2.56103694270231
O           2.03271832198944   -2.29081702964846   -1.40808186752235
O           0.02234565054686   -0.98481662736345   -1.75313345169322
H          -1.01720960974960   -1.22606496549637   -0.61730746600481
H           2.90525727395620   -2.17931592345234   -1.77040763131293
O          -1.71986072275370   -1.31991328164774    0.08784889462776
H          -2.42605832413630   -1.82241138539175   -0.32071797606265
O          -0.43473257470586    0.46384258069272    3.39407308990017
H          -0.80059599082311    0.05218652450723    4.17750102183125
O           0.44534495520439    2.12371654126193   -0.29204617092678
H           0.23025029717454    2.10286652808221   -1.25317315884024
H           1.06026008519227    1.36906030628271   -0.16744988184798
O           0.00475920651985    1.46138672956544   -2.83073797595133
H           0.91563868868333    1.33129395454719   -3.12665518873339
H          -0.26857224805503    0.55970513403034   -2.59339509736347
O           0.50433051706351   -1.44600657582848    1.85368355457812
H          -0.29680330081160   -1.71386175609855    1.38571530779109
H           1.06206981501897   -1.02284014617859    1.16779313741635
H           0.05770965618091   -0.25124060576276    2.90854008548257
N          -1.54181393244540    1.20397677838163    1.08468793454177
H          -1.74582482410046    0.26957343506409    0.67196565382040
H          -2.36111555736036    1.80066457530929    1.08107961333893
H          -1.18576830685543    1.04660892244941    2.06033175585927
H          -0.73032974050450    1.65395912498409    0.50857367322380
