    26
        -50.46564644  Gyration_radius:  2.57438212851 Dipole_moment: 3.758
 S          -1.15148997441643   -1.97829977190654    0.34583882967259
O          -0.17959800198781   -2.16428743668822   -0.72133074490293
O          -0.60414578814518   -1.25131008877109    1.47885042344001
O          -2.39035921687521   -1.40402660412148   -0.14716758607102
O          -1.50156851251445   -3.42164666225206    0.89128613826424
H          -1.87126643085460   -3.84813882003995    0.12494269003063
H          -2.34685156316275    0.06813630690636   -0.75261661886123
O          -2.23289173147900    1.00202569263521   -1.07576612344836
H          -3.10547379960791    1.30159580197743   -1.33438657388279
O           1.95956928124267    0.92615744874076   -0.58636930299196
H           2.21425677311650    0.06565654973007   -0.17765440251645
O           1.80651054081028    2.98087473873117    1.42246280750767
H           2.53914768134583    3.48560769854410    1.77651956199263
H           2.16028843648039    2.45932526891339    0.68856342251999
O           2.03274869780439   -1.46662066079846    0.58382317665178
H           1.35583949342202   -1.85434664324027   -0.00435962086270
H           1.58842522077060   -1.41162429308392    1.43565670724814
O           0.14368657027565    0.01265144593089   -2.30486197543760
H           1.50203735278107    0.67482244478137   -1.41975787141669
H           0.04331941177019   -0.85943969525720   -1.88088041612757
H          -0.69465910235630    0.46866663997712   -2.15734215469247
N          -0.27264407686985    1.26043675194759    0.77983361183236
H           0.63057064865829    1.18423926615025    0.20657303607698
H          -0.44064661806944    0.31388085861925    1.20935857244667
H          -0.12275719292297    1.99054345734213    1.47424385453886
H          -1.06204809922091    1.46512029528966    0.14454056898428
