    26
        -50.46422673  Gyration_radius:  2.57412524238 Dipole_moment: 3.123
 S          -2.25284851839937   -0.50369289750367    0.08289478217583
O          -2.37486211609995   -0.78337309631575    1.49564450250029
O          -1.32129717324564    0.59052549237358   -0.20312519011581
O          -1.93168859574902   -1.66143847271410   -0.72890031800740
O          -3.68573236798258    0.01261350221767   -0.36475554296619
H          -4.16426654096269   -0.07302806597452    0.45337078102945
H          -0.47484340537082   -2.29523447073677   -0.83414040410508
O           0.46456555637934   -2.61748941419591   -0.79957281537915
H           0.43089357414592   -3.54350191792624   -1.04292195609141
O           1.81115029861580    0.51747339185894    1.66432879546674
H           2.51911340255460    0.40407268597526    2.29904919362984
O           0.38090408652908    2.65564522913872    0.40125766731712
H          -0.40504224961094    2.10598773841231    0.25033274713220
H           0.91615919259582    2.15305655399184    1.03027595769453
O           1.54843813247662    2.40447016310091   -1.99709765067758
H           1.18485060127718    2.67084056423166   -1.11742947507255
H           1.00061672783848    2.84059928813900   -2.65062563526382
O           0.15595476439874   -1.49980180657501    1.81530694857864
H          -0.79403226145188   -1.26266498314556    1.81031493061616
H           0.30682320899916   -2.04682141525085    1.03104965827810
H           1.14445581787231   -0.19523501082697    1.85800897338099
N           1.13340798731352    0.00815215640855   -0.91665360605082
H           0.11007549038196    0.19252468581929   -0.69491771052342
H           1.43472687389848    0.73185704000317   -1.60091936558772
H           1.64205961467228    0.16320779737714   -0.02527612047792
H           1.22041789893298   -0.96874473786126   -1.21549913749390
