    26
        -50.46489821  Gyration_radius:  2.38581677779 Dipole_moment: 6.457
 S          -0.61745860978159   -0.00026795909615   -1.45141609929913
O          -1.99137899467349   -0.41970811030201   -1.22604904341489
O          -0.18414214424651   -0.01861644440804   -2.82077522721170
O          -0.33115915258594    1.26247481033251   -0.76513380286058
O           0.24640247584944   -1.09894919478580   -0.67503240679111
H           0.85939126297759   -0.66003761959220   -0.05531852644852
H          -1.53649411385481    1.50013617277230    0.26244517596133
O           1.70324828044600   -0.09352958035355    1.34863776927957
H           2.52850271399191   -0.57245463515812    1.43628657518437
O          -2.27321253906682    1.33095580250187    0.90579192676618
H          -2.90452977981807    0.83163260489406    0.37456421157188
O          -1.88492749727560   -2.31795820451142    0.53502736404827
H          -2.04444665895030   -1.64476172770676   -0.18076042107944
H          -1.22340923216496   -2.90415274992347    0.15966995123903
O           2.36342550678043    0.34423032973434   -2.31287948842950
H           1.41317774332749    0.18329516461138   -2.51694963543094
H           2.77114763982086    0.56283909879686   -3.15276333926734
O           2.15433948388132    1.93204599559460   -0.14959791860414
H           1.20522431975484    2.02436001914824   -0.35712415942625
H           1.93061957953925    0.77149513936886    0.86864691136211
H           2.49446315041302    1.45703604851976   -0.93460348639520
N          -0.92079299330336   -0.49946177922956    2.17306773880311
H          -1.49375085437827    0.32661914605317    1.77643866724799
H           0.08195264111714   -0.33060527395916    1.98636844435820
H          -1.09050583470242   -0.62404565173693    3.16535181159388
H          -1.25568639308136   -1.34257138154552    1.60610700723381
