    26
        -50.46564604  Gyration_radius:  2.5741951864 Dipole_moment: 3.761
 S          -2.17740677857306   -0.03354977097013   -0.78331764322375
O          -2.16620466096075    0.44463811902812    0.59110206681087
O          -1.12518762162048    0.56154226772037   -1.58988450758282
O          -2.18681216003692   -1.48386582374715   -0.84959655730499
O          -3.53809273077192    0.46162462155539   -1.42097863887722
H          -4.18987474667827    0.02708327791988   -0.88038391005756
H          -0.92063981084748   -2.26913080785318   -0.28774916497824
O          -0.07609035826710   -2.67231313843204    0.04956857309972
H          -0.16473207757302   -3.61802779048259   -0.07637268325750
O           1.47121579478710    1.03432311765492    1.34372235412788
H           0.84363999567127    1.74801113926972    1.08056145221811
O          -0.50106821327153    2.50319885451499    0.31768262398786
H          -1.20132316535956    1.87222860799336    0.57452724923606
H          -0.47474555454727    2.43444329219474   -0.64182478078010
O           3.62292890030634    0.85768764850749   -0.55957188058104
H           4.40567083785922    1.40857870060229   -0.58406976170868
H           3.15675956492202    1.07804769743168    0.25886282463158
O          -0.31335700361970   -0.76469395480827    2.15707314564531
H          -1.07950316919756   -0.33629920175825    1.73281287367693
H          -0.17874694054530   -1.58935869704130    1.67294170778820
H           0.93618460889927    0.43654365408651    1.91263144982217
N           1.18343986304269   -0.43672061492781   -0.82694312336928
H           0.32455536894956   -0.03310264031494   -1.28310549862195
H           2.01994433598061   -0.33928316814270   -1.40005356603644
H           1.35130016356391    0.12710355599305    0.06998317898686
H           0.97814554794748   -1.41870896597716   -0.57761777366436
