    26
        -50.43883822  Gyration_radius:  2.61742943744 Dipole_moment: 7.873
 S           2.14629501136601   -1.82505503717353    0.79603617587517
O           1.68918202981457   -1.83121674570863   -0.56932781426941
O           3.36358812761941   -2.48557684866201    1.08413886623514
O           2.21194878907192   -0.32462524083449    1.24601629169458
O           1.03630115134679   -2.38294348327605    1.72173987591552
H           0.23389837869737   -1.80671771887572    1.62281549325237
H           2.01121646265812    0.25037451916839    0.45662487673210
O          -0.09524221154570   -0.47110337758303   -2.01683798613799
H           0.53552585472812   -1.14800096217868   -1.71294606314359
O          -1.02497516523817   -0.78292274690437    1.64614198064272
H          -1.37045897613212   -0.82967246485240    2.53921961514667
O           1.66816223722950    1.14013370787736   -0.83369809097352
H           0.96154879734063    0.60762115466388   -1.27832908389166
H           2.44011199957365    1.06952012055437   -1.39891124904114
O          -1.77313782861482    1.82286818252337   -1.58336092602230
H          -1.11566447278295    1.19571327040052   -1.92029103342192
H          -2.14715478827441    2.26330489446795   -2.34751244962295
O          -2.43173551910557   -0.87048052083601   -0.73453438857908
H          -2.65369858084130    0.06645419024430   -0.79062297287990
H          -0.95785930420717   -0.77510420994620   -1.65553507681836
H          -2.04429382328680   -1.00691986859116    0.14489980470939
N          -0.53170298519830    1.72983159740077    1.12089333407380
H          -1.08160510824688    1.95765600679614    0.29663541381172
H           0.44258543217915    1.82518810295688    0.85807910614878
H          -0.73329758769719    2.41916794993794    1.83387314950101
H          -0.77953792047229    0.19250553842854    1.47479314109059
