    26
        -50.47096516  Gyration_radius:  2.40562867802 Dipole_moment: 5.278
 S           1.25042717469688   -0.49901135250578    0.38377294761114
O           0.67445450688140    0.84299681852468    0.50561904606787
O           1.99699247651982   -0.63896484484707   -0.85367365579989
O           2.23168868946301   -0.69412232995969    1.56214188551332
O           0.20088152687900   -1.51678350826801    0.48832761327459
H          -0.14633125909558   -1.91934580077284   -1.06583571328796
H           1.69648590432310   -0.44027875556826    2.36171002340992
O          -0.15020893970670   -1.88915183419210   -2.05326181603197
H           0.78919625104009   -1.81880130415146   -2.26088889055619
O           0.65541535548445   -0.15733410300235    3.56326766808568
H           0.73599672035714   -0.85467501396633    4.21784036551475
O          -1.81269755656357    1.26266550374888    0.14019080265037
H          -0.85159292585663    1.07586200853042    0.36249553516839
H          -1.96724360732237    2.17046452877694    0.40727177416902
O           1.38204056539410    1.60556165838478   -2.00929264695396
H           1.29831995270984    2.09651872821639   -1.18390426639854
H           1.77752685710156    0.75108862429596   -1.70340783878023
O          -1.57701347185494   -0.71623010620707    2.25181632011416
H          -2.01831364995363   -0.02581249785273    1.74427001925951
H          -1.00026799117686   -1.16767334729989    1.59833857280225
H          -0.24022307302330   -0.27072140828500    3.15630712428503
N          -1.01258127393618    0.57175693153964   -2.34469020573100
H          -0.76762257168381   -0.47160531933602   -2.29772627581402
H          -0.07110798685029    1.08249134389351   -2.32774320589285
H          -1.55342387141109    0.78981428439330   -3.17426944128638
H          -1.52079780239058    0.83129111586349   -1.46867576139836
