    26
        -50.44730207  Gyration_radius:  2.4490970759 Dipole_moment: 2.655
 S          -1.94002731209791    0.20301326298440   -0.52949953899920
O          -1.56567762461929    1.59961612428147   -0.45142444803732
O          -3.32091200930291   -0.08756980908773   -0.62739938369733
O          -1.14381237474525   -0.44704659934038   -1.68426445759741
O          -1.36777180362069   -0.51201420125329    0.71924012653976
H          -0.36481544638909   -0.60877659713776    0.59390184678387
H          -0.51800943031626    0.28347955196489   -2.07383354657321
O           1.14065129959821   -0.95327055193286    0.47946977811733
H           1.26163175446449   -0.97949961975081    1.44817148421286
O           0.27578751306344    1.47585884277728   -2.43842657875642
H          -0.34685581061732    2.13904877723648   -2.11810322928990
O           0.56467149580855   -0.17850446664481    2.96543596804442
H           0.50554239707556    0.71221508335433    2.58031934585125
H          -0.34183677967500   -0.48840397155738    3.02953974389327
O           0.11293061991474    2.17246112809910    1.48939976986283
H          -0.12570515341282    3.02545485300467    1.85559373578823
H          -0.56262984862411    1.96890653979841    0.80128217669772
O           1.99132419895128    1.47741594822459   -0.44740361191445
H           1.97163239466071    0.53623168765653   -0.21695526284615
H           1.03560345585650    1.50065079055984   -1.79265550525665
H           1.50539856878312    1.91080518291617    0.27254247331707
N           0.22065205038739   -3.08634747925857   -0.82005311703108
H          -0.34619122800171   -2.44647361577972   -1.37003485125691
H           0.76050563175920   -3.65194903542848   -1.46327328961587
H           1.00913635444686   -1.86543246417090    0.11873846443963
H          -0.41122292336304   -3.69986938143258   -0.32030808270600
