    26
        -50.46746635  Gyration_radius:  2.41233098736 Dipole_moment: 5.262
 S           0.03930912355919    1.43041132822704   -1.19214061599905
O          -0.72419138698071    0.78392323051308   -0.11339931044209
O           0.01232954223389    2.86121848241371   -1.10155180092270
O           1.55279682024713    0.96392960478677   -0.90208307358147
O          -0.28946965742804    0.83306616664087   -2.46537790727123
H          -0.74242588892639   -0.67130955731418   -2.30912730546706
H           1.81754392777693    1.60201209779594   -0.17836925019479
O          -0.87692262801057   -1.65670334184043   -2.20090678370579
H          -0.86669543657222   -2.01249882952778   -3.09108859332156
O          -0.16789540382486   -1.66564391353280    1.93518181716443
H          -1.06589839292344   -1.68023543852578    1.52789802897954
O          -2.26298104976949   -1.35287355250848    0.31608490437685
H          -2.19445577315393   -1.81705038780901   -0.52430129301352
H          -1.88087347135612   -0.47372449112144    0.13188090135989
O           1.67626630090818    2.70640145165971    0.96263132666475
H           1.03047815396959    3.14064814492190    0.37427180024341
H           1.17100758891014    2.27636497251846    1.67359003313017
O          -0.10968835073508    1.07782863792857    2.35798997073413
H          -0.06460167391097   -0.76711607331321    2.29905401647971
H          -0.39404876900049    1.01089549456072    1.40619789664573
H          -0.85748197016090    1.44311580973016    2.83396151665629
N           1.06143466278136   -1.62391385056885   -0.35153847410405
H           0.31851693656478   -1.82643788860572   -1.06469681511472
H           1.36185805256212   -0.64034825124504   -0.52540822750050
H           0.61228383033080   -1.67771261843009    0.64028955098907
H           1.84380490301868   -2.26424723973075   -0.43904230369081
