    26
        -50.43883850  Gyration_radius:  2.61711498319 Dipole_moment: 7.885
 S          -1.79296472657581   -0.95502034736934   -2.10673670477796
O          -1.95158634082484   -1.45855082033787   -0.76713633025991
O          -2.83982923944711   -1.19552721028732   -3.02724320847035
O          -1.50805154374088    0.58163980947157   -1.98342483110415
O          -0.46245281502066   -1.47495889422557   -2.70678504788086
H           0.28070139842850   -1.16348805374766   -2.12686457293640
H          -1.59674848027084    0.84343143491720   -1.02538046445013
O          -0.81105267619075   -1.03083143921556    1.60898628929417
H          -1.32182426067923   -1.42227423010777    0.87801408538512
O           1.53424312405685   -0.51358301752316   -1.32669894871397
H           2.21992985103374   -0.39194502384748   -1.98554707091425
O           1.12447234472291    0.82597848467434    2.64659608321563
H           1.18188607008771    0.94310161825473    3.59577721278283
H           0.32578762907985    0.30290134981821    2.48043986966805
O          -1.73330720037379    1.22337097645800    0.52688194102091
H          -2.67358205217728    1.18523194080578    0.71318695067693
H          -1.33936778799495    0.43310683031005    0.97514072149135
O           1.79147459802078   -1.60051917733447    1.20408606443293
H           0.08648555969523   -1.41815101869852    1.50163411786453
H           1.79610872678132   -1.38694495769297    0.25715849514290
H           2.06804219392972   -0.79912737509504    1.66396186629531
N           1.13249807412444    1.79453687663435   -0.16778948424143
H           1.34412814623070    0.40460678383932   -0.92444586324736
H           0.15458643984185    2.04363675259925   -0.26256804724820
H           1.30210057580824    1.64286047837088    0.82318446387091
H           1.68832240149447    2.58651823932903   -0.46442757690071
