    26
        -50.44406851  Gyration_radius:  2.49799872894 Dipole_moment: 8.364
 S           0.57256990935626   -1.08777856895235   -2.21628627058139
O           1.45355525866731   -0.01470087532894   -1.83214460164512
O           0.25794307139663   -1.19780471538514   -3.59511634775028
O           1.07577826244306   -2.41286264117798   -1.65269009584503
O          -0.76274026852804   -0.89439797601868   -1.38645990211041
H          -0.95717378367421    0.07234679760821   -1.28957423138047
H           1.31341754602053   -2.19830080430374   -0.67637192564200
O           1.45720987257553   -1.72402177965414    0.74577514320452
H           1.61002179859113   -0.76611882010932    0.75482540277510
O          -1.24506976453160    1.66859431376428   -1.05971733644248
H          -1.57629518825115    2.03961813309084   -1.87908611106310
O          -1.51939455484640    1.23207953107457    1.63775115971920
H          -1.58455025438957    1.33108669826144    0.67157156597042
H          -1.81846053154170    2.06207957907665    2.01418722702211
O           1.20805403228612    0.93831225278274    1.63556424348025
H           1.55742596769089    0.82135537782625    2.52019035219721
H           0.23334026454153    0.95125649434161    1.71082910919315
O           1.20559635501852    2.37021588806598   -0.73394700829876
H           1.40512102640894    2.08607480821892    0.17123940473171
H           1.51362742178714    1.62305001545865   -1.28278478292228
H          -0.30339134084458    2.02859514590284   -0.94223495596015
N          -1.13900663610252   -1.79895007220216    1.42297449763251
H          -1.61512661546240   -2.55535719088892    1.89663337172359
H          -1.46443262438287   -0.92258013793301    1.81502583471251
H           0.53753173937698   -1.84227257919646    1.10330236641423
H          -1.41555093349017   -1.80951888386050    0.44654388066208
