    26
        -50.44406844  Gyration_radius:  2.49796749668 Dipole_moment: 8.362
 S          -2.25958884862117    0.97462380334428   -0.60701705930743
O          -1.87204299691064   -0.17083329760364   -1.39013904559714
O          -2.95872269881417    2.00759641089054   -1.28263975719104
O          -3.00119973387623    0.52981893017735    0.64940426881632
O          -0.92938811043750    1.56336510414880    0.01996972952634
H          -0.18580540789026    1.46832175750199   -0.62798024115208
H          -2.43260467074685   -0.24228062105996    1.01871830655318
O          -1.39687844286424   -1.23597891966402    1.47407155546001
H          -0.90048267017846   -1.56157730178388    0.70692821782754
O           1.06437423518937    1.24704043547619   -1.66314182688659
H           0.99054799980709    1.88855926064159   -2.37146828799374
O           0.85744241854072   -2.06891310510865    0.00210689545332
H           1.44239911698260   -1.32278108955679    0.24104022188938
H           1.11198028504970   -2.81287872186332    0.54984718017751
O           2.52659143352192    0.08030976065900    0.34692504158791
H           3.40813263737030   -0.05386668073337   -0.00654814663968
H           2.05768419607126    0.64232563971705   -0.29485079957475
O           0.33606024395161   -1.06224187825693   -2.52328318727031
H          -0.60127173506927   -0.85750307383436   -2.33917724426381
H           0.83406737861899    0.34516409376327   -2.06815678462514
H           0.58455249771674   -1.66173661223781   -1.80298012801979
N           0.37253397122645    0.51329814044868    2.48042812594378
H           1.30555325325513    0.38201026477015    2.10646530903676
H           0.45456212430139    0.79516101623977    3.44840530428330
H          -0.05220973949441    1.27488119922888    1.96119855725340
H          -0.75628674665595   -0.66188451523009    1.97187380472023
