    26
        -50.45109875  Gyration_radius:  2.45777367654 Dipole_moment: 9.712
 S          -2.09056320076607    1.20233660904714    0.33812647751537
O          -1.11527936410063    1.94182359251182   -0.43077928825358
O          -3.45710175267435    1.55498619984978    0.17904365769681
O          -1.87305415811136   -0.27607380360395    0.11986688888702
O          -1.67277703837133    1.38835111968933    1.85920523609434
H          -0.71156621406460    1.52201288501153    1.79802339829957
H          -1.21593285587657   -0.74076698629177   -1.26024206192022
O           1.03584267737767    1.26806428378266    1.84432338715335
H           1.45277077743141    2.05010623813386    2.20688683573524
O          -0.73693985134924   -1.15350805081071   -2.03031803980626
H          -1.41148786263318   -1.58825522827458   -2.55375033524174
O           1.26858259138477   -2.14951087464171   -0.57717861328324
H           1.72996965899223   -2.84750810371525   -1.04325473538817
H           0.55992591395279   -1.82295295148126   -1.18111828050750
O           0.68584523637996    1.28372097089746   -2.25897747075216
H           0.26900864900765    0.45040134356350   -2.51328886375049
H           0.02852456294706    1.70897411815526   -1.67118740621340
O           2.26197876218703    0.51384593908532   -0.29979332115770
H           1.51792972450951    1.07234805963401    0.98073316005078
H           2.12417073739523   -0.43881878741923   -0.38702111710040
H           1.78426825300602    0.91133413181783   -1.07455558245505
N          -0.06959380576627   -1.19351364270763    1.62099747096536
H          -0.91758637410325   -0.80074887378289    0.99534720776949
H          -0.41774874647727   -1.77207772161978    2.37680838662155
H           0.54400656781175   -1.72157497881502    0.98110756822684
H           0.42680711191117   -0.36299549801588    1.98099545081410
