    26
        -50.46231974  Gyration_radius:  2.53358018555 Dipole_moment: 2.712
 S          -1.70204420969796   -0.40137986293905    1.52259081565237
O          -0.95294865871011   -1.64148192505249    1.35584745179475
O          -0.83705378189782    0.74350625068978    1.72045990070252
O          -2.66412376945234   -0.21536925130359    0.45083281981962
O          -2.53189838606618   -0.55979420597137    2.86006628359823
H          -3.08253113857502   -1.31030088765110    2.66312796202693
H          -1.98379302006703   -0.06205268062921   -0.97821677173665
O          -1.47556683008636    0.02072956766969   -1.82949596009488
H          -2.11853827205567   -0.06186347445777   -2.53512119237343
O           2.24701250821623    0.57274977985571   -0.18031337398633
H           2.28986255508901    0.48190923190428    0.79378528938654
O           1.68605798023808    0.29452089923559    2.42327330543346
H           1.87928946708831    0.92638855084685    3.11741590785366
H           0.72780105224203    0.38713478256564    2.23469517136833
O           1.58545140632186    0.06709114131935   -2.94198651751700
H           1.05583907055898    0.84907667110432   -3.10866040616570
H           2.22870472723207    0.32065401744005   -2.27126267571191
O           0.02194294344396    1.98407518327419   -0.52593854104725
H          -0.51628106933256    1.49265666910740   -1.16306236892859
H          -0.34405087768367    1.73804757820820    0.34307665451953
H           1.55144135103970    1.25803249216614   -0.32984584985692
N           0.59253962528528   -1.40043849792380   -0.72930270174602
H           0.02819568136323   -1.58885411334214    0.14987633639802
H           1.00124009343202   -2.24844471089416   -1.10704875113283
H          -0.04351153874597   -0.96672011046284   -1.42344122010555
H           1.35696309083604   -0.67987310476407   -0.51135155816309
