    26
        -50.47229294  Gyration_radius:  2.48046901465 Dipole_moment: 1.998
 S          -2.00442264014101   -0.44368882747624   -0.98944820787344
O          -1.61128580460785    0.65367126321920   -0.11082117693864
O          -1.12047950807754   -0.55819668004074   -2.13143015784594
O          -2.18491310618401   -1.68250811263960   -0.25755475430395
O          -3.43336999825523   -0.07296855986730   -1.56620900621748
H          -4.00043641124103   -0.36603701130224   -0.86084578705375
H          -0.74202992671692   -2.13259626275386    0.26947652923078
O           1.59878864947386    1.21126175734320    1.85359315054774
H           1.94922323438748    1.53681056981542    2.68285841063532
O           0.13877147124210   -2.35731669949328    0.66516786250607
H           0.21071284646852   -3.31204704846868    0.62038300875940
O           2.28156639948273   -0.76175826324760    0.05907565443676
H           2.22557548858668   -0.08439746082695    0.75709226715570
H           1.57801307189242   -1.40558087254307    0.26645762984236
O           0.32742061714814    2.51768348618618   -0.22020845911798
H           0.83240690054256    2.25807254049574    0.57150246246358
H          -0.51731654293132    2.03278974093334   -0.14718649305283
O          -0.59767013188855   -0.14277128866037    2.21639223470858
H           0.75424896741209    0.72243608234129    2.07489960187653
H          -1.09942952778522    0.17506514878388    1.43682802797966
H          -0.35783780522316   -1.05323167302972    1.99550611499761
N           1.17529759633991    0.65924040693545   -1.86617924165089
H           1.68075784170137    0.85512404722316   -2.72206552500080
H           1.73204050514623    0.04261506258534   -1.20308098058849
H           0.92388895272968    1.54346283248130   -1.32799841222144
H           0.26047886057119    0.16486583216728   -2.06620477326620
