    26
        -50.44671573  Gyration_radius:  2.49510477418 Dipole_moment: 6.212
 S          -1.61608867364107   -1.73991948242790   -0.04584099771122
O          -2.31530697430167   -0.48985288869343   -0.23599315842160
O          -2.31813997948830   -2.93151047932550   -0.34135196611518
O          -0.29534913569438   -1.65672972680324   -0.88032442430739
O          -1.07063969330652   -1.81998064199130    1.39134223826458
H          -0.63974257325238   -0.95005505324017    1.67623398369525
H          -0.45895211698907   -0.95496308977656   -1.60883305479849
O           0.10195429798211    0.30941607718768    2.19794126345319
H           0.47921685451393    0.07452679935533    3.04716101779745
O           0.18995953841567    2.28225750169178   -1.21783724556466
H           0.07081495627629    3.14659721702788   -1.61386095904685
O          -0.94130546370649    0.19513025216663   -2.45459729939261
H          -1.80034358010467    0.22677895634553   -2.00950384276058
H          -0.43899958747547    0.97637489006234   -2.12298897722044
O           2.37957801143731   -2.05477039270954   -0.24369627169737
H           2.56110806814110   -2.97061380440093   -0.02820854986288
H           1.45547033386076   -2.01908143929850   -0.53366816706791
O          -1.56524114407621    1.91808777951485    0.69777928299987
H          -1.06029360298743    1.60503065553781    1.46093837985843
H          -0.46385992900345    2.22669676777349   -0.46648763833149
H          -2.02150503935864    1.12099657303431    0.36930312051774
N           2.03697885215961    0.73027340341886    0.55061804527821
H           1.63719745372746    1.23009342733142   -0.23817016362578
H           2.34977914743412   -0.18075541459804    0.22472622891018
H           2.84550128110042    1.24612241336320    0.87237294932206
H           0.89820869831040    0.47984968945549    1.55294621583131
