    26
        -50.44688622  Gyration_radius:  2.41297880304 Dipole_moment: 4.094
 S          -0.21117849884389    1.65316826735476   -0.89712601980285
O           1.15745285951955    1.99598315345580   -1.14592247249858
O          -1.19173537525365    2.68461294214179   -0.96137742867038
O          -0.65040541328644    0.53712527232311   -1.87090851493748
O          -0.29218493971578    0.99890931262103    0.50871066337978
H           0.61256125763618    0.71719455466454    0.86420026188659
H          -0.33035946394283   -0.38503931208691   -1.59265507895517
O          -0.02904344113136   -1.81112744088642   -1.12381402838464
H          -0.40111669454988   -2.43363904753240   -1.75222726747017
O           1.96604831051304    0.28392739648612    1.48406451247416
H           2.46112896293935    1.09078129948242    1.64086175467213
O          -0.43257534880882   -0.64619528956029    2.85407462247705
H          -0.79184156929439    0.23836350325893    2.74503992079387
H           0.49291590848603   -0.59373794459718    2.58674515584095
O          -2.99372244430895    0.79632450700550   -0.19948882042797
H          -2.40688787115823    1.54872353586904   -0.38118595232999
H          -3.55330628901095    0.70466726758156   -0.97326031526022
O          -1.81899460945169   -1.56502094117890    0.67994851125194
H          -2.27946345585748   -0.74121381436025    0.43047092124946
H          -0.69260526680274   -1.78401984555682   -0.35083337491825
H          -1.38670236219704   -1.37505927070173    1.53537130990452
N           2.63286084379473   -0.43735434069395   -0.91230385363887
H           2.34057740302872   -0.10869560731079    0.62508951790454
H           1.97589800396309   -1.16441774774514   -1.17256179755488
H           2.29212352540822    0.44439181948240   -1.29419586675564
H           3.53055595831245   -0.64865221954977   -1.32671636021429
