    26
        -50.46619326  Gyration_radius:  2.55653909626 Dipole_moment: 3.268
 S           1.47837866836476    1.62860196931241    0.68476142716866
O           2.10220401863090    0.89261112312900    1.75831115721053
O           1.60570587015308    1.02312612866819   -0.62495975619331
O           0.07599481545465    1.95097706871978    0.97933821288955
O           2.23871845723377    3.01974650257231    0.61868365780468
H           2.66959214836476    3.02722031420050    1.46628334234746
H          -0.92115352710374    0.82407231155398    1.55161927464236
O           0.92008536849306   -1.52877944719533   -0.75558877249930
H           1.36678640297915   -0.66055780570626   -0.84020010931741
O          -1.54817857908195    0.09761223657097    1.80531822601773
H          -2.08832928732851    0.45002990672812    2.51374282893675
O          -0.78486734169984    1.94872262363110   -1.50009139922181
H           0.09819189994396    1.77604430153841   -1.85108009892715
H          -0.59734749086471    2.15680181191881   -0.55953481633021
O          -1.10828798366882   -2.83091219705635   -2.31895897431773
H          -0.23965883104048   -2.63579189259095   -1.93988921589146
H          -1.00555619146998   -3.62900390464645   -2.83796899197356
O           0.82609153272651   -1.45122907846712    1.87113167182479
H           0.97523631143403   -1.72721853506758    0.21233498542194
H           1.40610567913915   -0.66762552823665    1.95084323843970
H          -0.06627338475751   -1.12648154157383    2.05353660186815
N          -1.51713741485031   -0.50981593225036   -0.85324688100703
H          -0.54653699142104   -0.96015089362247   -0.82855026282898
H          -1.38394366200546    0.46577785388254   -1.24568567818317
H          -2.10929584434255   -1.10239019248275   -1.43124694109652
H          -1.84652466300030   -0.43138719358477    0.12109727351052
