    26
        -50.47096513  Gyration_radius:  2.40559398449 Dipole_moment: 5.278
 S          -0.82432160292057    0.15184915539141   -1.12119122157681
O          -1.10412978029577    0.32798585918007    0.30643619740255
O          -0.40556867561930    1.40097544728928   -1.73164710733234
O           0.17903727292537   -0.89806461810768   -1.31947701387256
O          -2.13684272564809   -0.29962635627376   -1.80155306450496
H          -2.44293042504852   -1.06476009419328   -1.24384610687642
H           1.59609213290195   -0.09016756699011   -1.51231742633736
O          -2.71455500727886   -2.37899414110056   -0.34557468404549
H          -2.91256800021460   -3.11845995203632   -0.92451984831040
O           2.24382622349601    0.65549542646634   -1.53147393148245
H           1.77071988080249    1.32647553880268   -2.03804308983534
O           0.50782600466853   -0.51252300611668    2.09265057769847
H           0.04945385820722   -0.41064176826662    2.92859569155662
H          -0.15889805524958   -0.25811313655453    1.38640325293190
O          -0.18434821049453    2.88829092657740    0.38743589543875
H          -0.27962361983883    2.50509975703442   -0.52042982824030
H          -0.88587645405647    2.43811736463760    0.87171670149937
O          -0.22447675998109   -2.79506478642112    0.45539985487901
H           0.04002058164685   -2.20014791616898   -0.27917358968700
H           0.10118962334967   -2.35458789877761    1.24846676246287
H          -1.84062130457857   -2.58792540578846    0.07068195725805
N           1.95244463668755    1.46174236384507    0.94832945959415
H           2.20174654204557    1.11436307307569   -0.03555862223497
H           2.74990932212032    1.89134888465419    1.40415848437288
H           1.14541756805051    2.15179462597091    0.80664032098917
H           1.57707696426034    0.65553820384782    1.49789040824030
