    26
        -50.46981663  Gyration_radius:  2.37108523353 Dipole_moment: 5.560
 S          -1.51096445703367    0.52574655889095   -0.52950602851124
O          -2.10312142084027   -0.73430439230977   -0.92654477479249
O          -2.09994706075231    1.72296099694198   -1.06108683308656
O          -1.34357900695467    0.58703006283964    0.93363191479818
O          -0.01959126149440    0.45108580447160   -1.09846282856641
H           0.23933235559633    1.40693088747873   -1.09768157371625
H          -1.34446503608533   -0.95979071121531    1.41105922564863
O          -1.25918852957288   -1.94376406505306    1.45852621038892
H          -1.89535343750906   -2.24740677702063    0.80217515277453
O           2.34745836352925    0.30151316863339    0.58204236773289
H           2.44177479566068    0.72325194644268   -0.27514221470790
O          -0.23007281890731   -2.09317640331760   -2.12724082062401
H           0.08975887750224   -1.47677308173853   -2.78923029594099
H          -1.02345169544124   -1.64771779079290   -1.73427205190055
O           0.20598970207877    3.00695360784816   -0.81053737219079
H           0.37142194158324    3.05139104959669    0.14217760488778
H          -0.75941576671249    2.90923602219554   -0.92606318355530
O           0.61960854816969    2.00249446844711    1.76976960213667
H           0.53887359812676    2.13075927968065    2.71588410552140
H          -0.17966538395837    1.47466986002757    1.49261537055968
H           1.79079889076767    0.91583989773840    1.10799523850581
N           1.05037164036368   -2.03299406213086    0.19700889864407
H           1.55470847509098   -1.12159646926455    0.35070720112187
H           0.67567941779262   -2.07235753873173   -0.79463483345876
H           1.66207570309647   -2.81865453036437    0.39111885346362
H           0.18096359591587   -2.06132778931151    0.81569104485871
