    26
        -50.46158929  Gyration_radius:  2.59141552104 Dipole_moment: 2.480
 S          -1.69168223526690   -1.46801769361908    0.17423947519652
O          -2.60684535176785   -1.54437069170553   -0.93414542425660
O          -0.29264698103942   -1.65406286294885   -0.18213079609088
O          -1.87649059550231   -0.29409529284437    1.01338956710810
O          -2.01994216943276   -2.72441855845000    1.11143985952907
H          -2.96726105251992   -2.79617134301869    1.04841322657441
H           0.77188297364391   -1.69699581195209    1.07944914435338
O           0.95711142611895    1.42849383014887   -1.27278703219012
H           0.06216538575061    1.23342796509076   -1.62264470180472
O           1.37536347860788   -1.53327852654169    1.84161079412453
H           1.06957573694112   -2.10941279221621    2.54315314614010
O          -1.42682619854386    0.51286354441815   -2.12272239583136
H          -1.36921817712239    0.19922891002652   -3.02833086947483
H          -1.91144943339181   -0.18321844380845   -1.63686411506058
O           0.98450782857236    3.57310665529194    0.64460397650658
H           0.75797413349121    4.47058238577551    0.39920957365317
H           1.09769173589256    3.08242677049889   -0.18146695201054
O           1.95466741063747   -1.03978827871193   -1.53265037983148
H           1.09653312723795   -1.36531720020957   -1.20523477115665
H           1.48563190889949    0.63849224111478   -1.51600707320150
H           2.59971371180107   -1.32460227791522   -0.88196476120821
N           0.39938578642590    0.93044003737161    1.28120397824071
H           0.45492104009348    1.82655680588894    1.76334705506169
H           0.68824382401812    1.10110149330798    0.27400541959428
H           0.99404025941440    0.19483924072003    1.70000887860693
H          -0.58704757296426    0.54218988426823    1.24287514746815
