    26
        -50.46564927  Gyration_radius:  2.44836434474 Dipole_moment: 6.113
 S           0.57903447250679    0.54525144419759    0.81860932467439
O           1.77650850956212    1.03359084244052    1.50291004402831
O           0.36387921314704   -0.87975310632008    1.06749521255178
O          -0.60623588264444    1.32871106116563    1.09449563374306
O           0.93952414553828    0.68490398427543   -0.68991874365344
O          -1.90365498570394   -1.67562668716368   -0.11037749594683
H          -2.56444460003745   -1.15419480894415    0.37606366014181
H          -1.08235384003405   -1.56099487463434    0.40410980516805
O           2.02296912745716   -2.02897443115548   -0.54891202610386
H           1.53162456768406   -2.04346424347076   -1.37431250341536
H           1.36977936449198   -1.73659451286436    0.13886734272806
O          -3.02987272252702    0.25962807608912    1.48842880911986
H          -3.20186307467032    0.09276076491590    2.41579548808887
H          -2.13673194006537    0.66099358141860    1.44345080218150
O          -2.41646838780693    2.00711656038021   -0.83499164955714
H          -1.71210019914804    2.02559570383355   -0.16419861788655
H          -3.17964790626867    1.63835897206679   -0.37873095371490
O          -1.08806443698329   -0.01055527789086   -1.97726373920321
H           0.11467439694094    0.40838704182504   -1.26709271939685
H          -1.46452821975331   -0.73807852372983   -1.41528823777450
H          -1.66481551696682    0.76739967160269   -1.80435204126408
N           3.51374704114887    0.07391258217284   -0.04864242582536
H           4.42757581356646   -0.10472785373480    0.35585713771057
H           3.57584955818796    0.70110325609837   -0.84545242614825
H           3.02111410179551   -0.82949686499522   -0.33868157747697
H           2.81450143059826    0.53474764242988    0.69213190724423
