    26
        -50.46619286  Gyration_radius:  2.55653059824 Dipole_moment: 3.250
 S          -2.21010403856370   -0.62239077441255   -0.18904688798945
O          -2.80310747482844    0.66380871560815    0.08944355187766
O          -1.33623646519646   -0.65371909035182   -1.34400194810960
O          -1.54155879808507   -1.18920118722736    0.98939698515733
O          -3.42356756254916   -1.59367508157738   -0.50896925300029
H          -4.15240004741076   -1.08268355868658   -0.17459242974737
H          -0.55219605047817   -0.28762340620836    1.88436342542513
O           0.13241845930684    0.24712862047461    2.36446445005654
H          -0.02369674405995    0.09936720940923    3.29805922617397
O           0.51812493355488    1.23232871592475   -1.40197301314692
H          -0.19758936778563    0.59813463307307   -1.61659871114146
O           0.29608229867697   -2.54776610701957   -0.30100758584341
H          -0.41040676386262   -2.24949412469340    0.31148315368009
H          -0.05721657174871   -2.28949153790574   -1.16196347042504
O           3.38285279706615    1.02693864748585   -1.45435315287367
H           3.97972576466214    1.50637342478031   -2.02948074832070
H           2.48671128037551    1.29161362151079   -1.70579959486109
O          -0.76395539118393    2.30258372842083    0.62918281428691
H          -0.39814587001332    1.83875643902312    1.39477176511904
H           0.09932937980018    1.84544896442833   -0.74777733393483
H          -1.61129233635472    1.85318234815531    0.43718728326540
N           1.74667245446564   -0.40965672231268    0.26644469020894
H           1.34879976072070   -1.36625875556452    0.04221186350554
H           1.45098983552433   -0.14384717264911    1.21821820004347
H           2.75263720264119   -0.34517066972872    0.12572589682563
H           1.28712932452241    0.27531312066519   -0.41538918612967
