    26
        -50.45723637  Gyration_radius:  2.41482613363 Dipole_moment: 6.625
 S           1.35342439166115   -1.57720758234985   -0.08362111154017
O           0.88421410258226   -0.86414695559387    1.11089203864590
O           1.69783993340617   -2.93869556297722    0.14100646739699
O           0.05537157177985   -1.54899039996210   -1.06890459283177
O           2.30792687102858   -0.77101428934568   -0.83066048785501
H           2.31726777945309    0.76515739031288   -0.59219476795877
H          -0.74787074846131   -1.57791099276877   -0.50564222641815
O          -2.21192549095596   -1.33129539048386    0.31658901195958
H          -2.80200099822437   -2.08086406653250    0.22550621014652
O           2.20067414375492    1.76360674575887   -0.64270257385105
H           3.05290460381893    2.10827174953194   -0.91201976821586
O          -1.88316689093133    1.36474142664389   -0.34800845076061
H          -2.20211629668889    0.47146423619736   -0.14393519516491
H          -1.25481863202599    1.58887041567362    0.38701489100168
O           0.13865909424547    1.64339413386220    1.30978900554555
H           0.43684684851101    0.70447034217583    1.31335967695167
H           0.85798339762437    2.10911576208133    0.86920934180057
O          -1.12772187702850   -1.33566897965618    2.68625546321134
H          -1.89409043065062   -1.33841946191174    1.26354467327811
H          -0.25305316631051   -1.30695126617558    2.23089618964372
H          -1.18278307119869   -0.51550432437647    3.18207899426172
N           0.05437417005142    0.94693826663429   -2.01600564833569
H           0.88420358786138    1.45093983300351   -1.62136085589949
H          -0.82367711027061    1.20894406222577   -1.43241811406022
H          -0.06418995877007    1.13306402693874   -3.00557842202622
H           0.20572417573433   -0.07230908890550   -1.83308975892454
