    26
        -50.45584587  Gyration_radius:  2.50629443985 Dipole_moment: 7.195
 S           0.64197198110445   -1.66593313239242   -0.73697512576702
O           0.27743234442120   -1.67109758596463    0.69622125193251
O           1.43099761821789   -2.77489968700933   -1.13619318063708
O          -0.73726453089187   -1.72561091950112   -1.50877125138220
O           1.19921545287658   -0.34131322786493   -1.05691175851928
H           2.17492283903003   -0.09280432005389    0.28321013423545
H          -1.12063957599854   -0.83153777527632   -1.48796171048516
O           2.53657636570853   -0.00029175144676    1.19027471879998
H           2.26608743521941   -0.80705385716690    1.63683920874154
O          -1.75020303097327    0.83186436730066   -1.58075624259396
H          -2.52557789953115    0.78446609506665   -2.14212409771046
O           1.16021713898445    2.12936727555281    1.92326052632404
H           1.55295764566756    2.87800958228690    1.47270235844997
H           1.77383920416104    1.36556366533210    1.76528176839052
O          -2.13149760795214   -1.61063846521392    2.02167337610999
H          -1.30317895728923   -1.88007247595019    1.58871853850419
H          -2.52170306502018   -2.41040665857634    2.37515797209723
O           0.42481636765962    1.21922394146551   -2.97883745874053
H          -0.99322251614614    1.09982781444004   -2.16385595154022
H           1.02235448921119    1.96829324072497   -2.99678299758748
H           0.83409182673103    0.56007732606840   -2.36572491903678
N          -0.85618838789739    0.62615107485401    1.04229786127313
H          -1.27145345883310    0.90246261101680    0.14407847415896
H          -0.30281794031857   -0.28356841588754    0.88845684354985
H          -0.19333725198854    1.34927283048934    1.41578329178460
H          -1.58839648608526    0.38064844765625    1.71093837966716
