    26
        -50.45842876  Gyration_radius:  2.45479695864 Dipole_moment: 7.766
 S           1.28531192559444   -0.86295709443190   -0.95322850841158
O           1.82401720704641    0.20978009183117   -1.77164011874874
O           2.19879013159140   -1.87078254876606   -0.51708683827381
O           0.80628068778077   -0.08410469016062    0.37122027336840
O           0.03683261855806   -1.40109394358380   -1.51756269735488
H          -0.59734536490544   -0.03969862185243   -2.03752905085079
H           0.45638033428438   -0.78702225632093    0.95242764575027
O          -0.77744137564732    0.90138476949596   -2.29809362722195
H           0.06121389142079    1.15822648855604   -2.69950285715007
O          -0.37494660670262   -1.86958890946398    1.96037473681667
H           0.32535252845977   -2.41356583840609    2.32679498670667
O          -1.43669409691112    0.73733034208307    2.17249434000022
H          -1.22474564189571   -0.20385593760076    2.07137681326507
H          -1.01633192636536    1.01256878420196    2.98940128244811
O           1.97688195153406    2.32534782306377   -0.28375789323892
H           2.48812917547545    2.02133653368440    0.46841361275646
H           1.98934396730293    1.55688782616785   -0.91742675887827
O          -1.22733521664765   -3.17858712922519   -0.12015603059186
H          -0.68475735871780   -2.61440810320914   -0.72890704407265
H          -0.78576776335097   -2.42350634696229    1.24087171423289
H          -2.12445505332539   -3.13470278933448   -0.45567409251815
N          -0.66006540903430    2.21368702272294   -0.03280130599899
H          -0.83578099156788    1.67908029856194   -0.94772751609729
H           0.39586814148713    2.33703869253463   -0.01202703085107
H          -1.14301349390839    3.10573628847964   -0.03335299634884
H          -0.95572227155083    1.62546926791666    0.77309896125496
