    26
        -50.47194191  Gyration_radius:  2.49773684226 Dipole_moment: 3.371
 S          -1.84678371433028    0.89193634343792    0.82901854925305
O          -0.57592354037980    1.60683801264385    0.77641360060418
O          -2.18683376968700    0.27439087080561   -0.43747077239073
O          -1.90631482572231   -0.01754519533284    1.95670627111239
O          -2.95943206091046    1.99050199647884    1.08385170736443
H          -2.78038635786742    2.25161205719260    1.98100782363745
H          -0.82131147804325   -1.18065652818569    1.90144138791214
O          -0.11576167624316   -1.87283089180534    1.79066444482218
H          -0.30536808029041   -2.54767259419467    2.44455321151263
O           3.12224463086242   -0.04515931055697   -0.50356690538865
H           3.72048312048935   -0.75366934574113   -0.26298364984888
O          -0.67263638174408   -1.86441429237175   -0.87644028177378
H          -0.38283304945288   -2.05744505779262    0.03375199588601
H          -1.37195105399512   -1.18510896331324   -0.77159459497299
O          -0.53697356845618    1.80891736805803   -1.82992309397946
H          -0.33731271732677    2.02719380797374   -0.89776627430562
H          -1.37590284672838    1.32736013709592   -1.73237279723926
O           1.60917243610438    0.29237885722870    1.60095363633273
H           1.18223849529251   -0.55932945270794    1.78186899278086
H           2.61380068881225    0.17583570916511    0.32524504358808
H           0.87394361737603    0.89057681359420    1.36429099782208
N           1.02734260436078   -0.29736735798350   -2.13181450314260
H           0.48149013686420    0.61845363058975   -2.09813316166115
H           1.23797571829371   -0.55136598356449   -3.09036940387052
H           1.90877957588479   -0.19724754518190   -1.56637202446976
H           0.39825411682843   -1.02618306554068   -1.67096019958487
