    26
        -50.45583337  Gyration_radius:  2.47422492997 Dipole_moment: 7.438
 S          -1.30983413676780    1.34277274742810   -0.17487666474811
O          -0.14217375254566    1.55518669894804   -1.05627369407942
O          -2.15269290248549    2.47619530149342   -0.04845641066841
O          -2.13454764194556    0.18227396681180   -0.86746615863927
O          -0.82809563496344    0.76505909920291    1.08926055033763
H           0.54268135399978    1.70002697204630    1.34211222168019
H          -1.69283902183481   -0.65685893015972   -0.64508431796888
O          -0.96271478594133   -2.17340183097807   -0.08512982479675
H          -1.51181826501942   -2.87943736597272   -0.42936832373438
O           1.39338365476389    2.18070561501379    1.25957167808731
H           1.31280136173247    2.66678478379134    0.43438930767111
O          -0.13467433205938   -0.18035159081573   -3.16259739869713
H          -0.22422691733220    0.59413318395823   -2.58089096526766
H          -0.94312412875139   -0.21407284301878   -3.67484654130299
O           3.00779401718591    0.10102600525225    1.09708025101300
H           2.52804246449388    0.96439194205941    1.19747584646482
H           3.08442398179343   -0.26056190210059    1.98096328876668
O          -1.77504081840559   -1.34945739041995    2.25962377398390
H          -1.54118066434706   -0.45341131131539    1.91439874589499
H          -1.26207383659172   -2.00393998514763    0.84572298986212
H          -1.34554362688018   -1.42297347496015    3.11328393181275
N           1.23714620227033   -0.61138204107195   -0.75730511477167
H           1.57048093825466   -0.83086185448881   -1.69426089325037
H           2.01529634487136   -0.49577046447649   -0.06066206976948
H           0.71439887712928    0.32730910107608   -0.83204022432422
H           0.55413127937559   -1.32338442216307   -0.46462401355689
