    26
        -50.47062754  Gyration_radius:  2.4316576919 Dipole_moment: 4.347
 S           0.60404538059777    0.40604654727116   -0.77072630447702
O           1.37930796090630   -0.45013889553265   -1.81361785204117
O          -0.29459829703112   -0.53890059920908   -0.07534397999483
O           1.59785185506773    0.92458552752338    0.15073675604900
O          -0.14759175954825    1.43100392758215   -1.46094499483190
O          -1.95604641729370   -1.58609274858683   -1.87753141639620
H          -1.93386306172365   -2.53376696328688   -1.73457817162677
H          -1.42695849591390   -1.18580523347348   -1.15763885926355
O           1.51492864806251   -2.11284462385360    1.04426884552491
H           0.78435238441215   -1.65119925564710    0.58077253090289
H           2.25075686740876   -2.10030835300300    0.42899943087679
O          -1.29504942174567    0.40867083840297    2.24816021687896
H          -1.33875284975156    1.32675396619202    1.91289714297748
H          -1.20465103314323   -0.11525655948149    1.43187741857540
O          -1.05191562505462    2.62574824049077    0.74991838462945
H          -0.66961349622452    2.24158124475665   -0.06411598492143
H          -1.73238348801063    3.23588435211382    0.45783496522499
O          -0.43212164746945   -0.18296300704320   -3.60190898876957
H           0.79450298117962   -0.44651277711363   -2.63117717188353
H          -1.11983115843988   -0.76131436458976   -3.21432637220959
H          -0.57115166023806    0.68153359826851   -3.18617091537929
N           1.26961693011699    0.07993986660073    2.56556550667784
H           1.46296663389990   -0.91909909808287    2.35195607130456
H           1.80128497637472    0.43256228761442    3.35279325425280
H           1.50469882974539    0.57319626684889    1.64755817137581
H           0.21021496379271    0.21669580524378    2.66474232654046
