    26
        -50.44151825  Gyration_radius:  2.60961447912 Dipole_moment: 5.293
 S           1.83561312113339   -2.06643564314006   -0.70608965092946
O           1.47802977429094   -0.95830103029728   -1.55514832480190
O           2.94274210913576   -2.85943955280935   -1.08907791358038
O           2.04462798606686   -1.50717133522244    0.73805111936934
O           0.59405133529934   -2.97854812156968   -0.52577757508186
H          -0.16654975449541   -2.37889860827307   -0.30426011590383
H           1.92955550739934   -0.51601559840159    0.77324531294803
O          -1.38636002698543   -1.42678153072381    0.13070398595214
H          -2.10288171162154   -1.97676448035513    0.45228134817941
O           1.79828590402251    1.07719592986853    0.90625720598583
H           2.68249789675251    1.44347283547284    0.84791857964853
O          -1.74918345236928    2.50318102050337    0.48977688305238
H          -0.96177430021290    2.94634204638688    0.16389323822020
H          -2.08328124694637    1.98166827252075   -0.25150916732757
O          -1.88435517801029    0.59475586234893   -1.60020941564323
H          -1.72082097534600   -0.18535395763211   -1.02967800551200
H          -1.95963433496162    0.26610745501212   -2.49738476246950
O           0.68509358807899    1.57194733119950   -1.40078897391990
H          -0.26863641207231    1.38150940329687   -1.46546610021473
H           1.32947654108849    1.34706315672895    0.06505167973875
H           1.09871047362896    0.74356330346896   -1.70431823038619
N          -0.81557946787782    0.23714858161865    2.00048215992220
H          -1.13471943169232    0.05223135100716    2.94206206707042
H          -1.24676032541034    1.10531725868589    1.67475907798531
H           0.18561574157723    0.39548848374109    2.02650738486433
H          -1.12376337045051   -0.79328244344122    0.91871819282723
