    26
        -50.46045575  Gyration_radius:  2.5835963226 Dipole_moment: 5.554
 S          -1.96431686619623   -0.60608159880665   -1.50657637227844
O          -1.28885143100755   -1.74858964822388   -0.93476281832364
O          -2.07960093719407    0.50314476752181   -0.57055178223520
O          -1.37684597276267   -0.21379841360084   -2.78157223422865
O          -3.46229243073564   -1.04046631100999   -1.82555370186313
H          -3.35418986140084   -1.71141581547977   -2.49252321341093
H           0.09870012436287   -0.20432478154142   -2.31213683537108
O           1.03479240137915   -0.18247343955450   -1.95493289701295
H           1.58971160874062   -0.52192451728382   -2.65946027675159
O           0.77661139319328    1.86052721166721    1.89656526678260
H           0.81132778420420    2.74718176590658    2.25688718189754
O          -1.07567126186640   -0.24113884917303    1.73499298098178
H          -0.62533586446387    0.57621974723401    2.00075097987369
H          -1.61271904364253   -0.00745051777293    0.94365717780558
O           2.67101233330338   -0.05059080868957    2.09632621221890
H           2.73041615907626   -0.26332429661413    3.02894885168028
H           2.07164900040778    0.72467991138891    2.03075484655732
O           0.08374533009358    2.06195215416552   -0.60108266247547
H          -0.80038132397771    1.63941058568653   -0.63871359811847
H           0.54989471999213    1.97106765909184    0.92719755129363
H           0.63963799718102    1.51561561724812   -1.17256229897298
N           0.94300623328917   -1.37893546355650    0.50804031405257
H           0.86417357406701   -2.38657881998636    0.42416360148481
H           0.95820539968058   -0.96990276164917   -0.45245433103674
H           0.05194414907994   -1.01357876972505    0.99266181930188
H           1.76537678529848   -1.05922462728149    1.06193622813270
