    26
        -50.45730965  Gyration_radius:  2.44873424801 Dipole_moment: 7.980
 S          -2.01302232011995    0.65426624984349    1.17079906876768
O          -1.57825995955173    1.12696250567062   -0.18005510267569
O          -3.38337434775930    0.91973760248161    1.42963533464037
O          -1.57174428021475   -0.72001324318214    1.36622297327151
O          -1.11442218298451    1.51092666447095    2.16235421624757
H          -0.30143312449154    0.97999627541656    2.21209358542769
H          -1.18759136417124   -1.80772965428179    0.32010340472205
O           1.31162419695901    0.30753129647508    1.99285878522638
H           1.60798022297739   -0.02623544183976    2.84021267297853
O          -0.85876723967014   -2.48097139268830   -0.34155663140859
H          -1.28184302322874   -3.30691391208139   -0.10495485566061
O           1.54283971731918    0.15795125850275   -2.10670958780126
H           1.90905116102578    0.21058165985867   -2.98963032865192
H           0.57496766576289   -0.12067279803258   -2.21813703367002
O          -0.94370806583785   -0.49761801718385   -2.20479120495841
H          -1.33881403257878    0.13368960856968   -1.56818594958231
H          -0.98881065799871   -1.35614551380764   -1.74955020064547
O           1.63796993482238   -1.51824930067585    0.15588505498777
H           1.39954580503719   -0.45515425796996    1.34958752505822
H           0.79778567010949   -1.99587412300021    0.01584665864853
H           1.79645226032807   -1.03407155907280   -0.66767969846309
N           0.82669985917740    1.89094288659485   -0.17753558966063
H           0.93843546767741    2.89325840394218   -0.27658961054005
H          -0.25684555507956    1.61263824870640   -0.17325091746924
H           1.25775628814374    1.36624598158302   -0.96958895134344
H           1.21752789434482    1.55492061173244    0.71261640244332
