    26
        -50.46045572  Gyration_radius:  2.58364722119 Dipole_moment: 5.555
 S          -0.78006552486140    1.83031707968706   -1.59303921226803
O          -0.11239285571267    2.32609754488644   -0.41113123476599
O          -0.16327663909056    0.62109973886613   -2.11950962687151
O          -2.21567675451509    1.68995101052849   -1.38346638590977
O          -0.60570632350189    2.92099092986161   -2.73951706018593
H          -1.08225514336699    3.67086534167488   -2.39703578141644
H          -2.13409038738483    0.91737489860438   -0.04396178751545
O          -2.03088002127232    0.39355398356347    0.80414409722503
H          -2.73606509750513    0.69204593393777    1.38131469180420
O           1.10623260352742   -2.53743163452820    0.00294204295865
H           1.20506638068971   -3.42502651316685   -0.34290467913756
O           1.94435535724964    0.05605310266482   -0.66488209375416
H           1.87322395110745   -0.91075030278318   -0.62323972370053
H           1.27292568785231    0.34717385525454   -1.32340336265202
O           1.33173614775701   -1.76407094595522    2.57809770273801
H           1.21412189639915   -2.15228021574755    1.68358151414473
H           2.24488097961447   -1.92522228259839    2.82043015754041
O          -1.11532862750808   -1.57549960999379   -0.94473039468811
H           0.22548622808798   -2.20880250398137   -0.34290132019632
H          -1.64251482691018   -1.14698206763874   -0.25730681745538
H          -0.82855792392334   -0.84250373359496   -1.52960231961879
N           0.60493476155911    0.60797596181284    1.52065360203541
H          -0.40306215237494    0.58153092196737    1.24991230439675
H           0.80599143885131    1.52184644371437    1.91181782187610
H           0.84262734300515   -0.18776200795893    2.14961367291410
H           1.17828951223552    0.49945511084091    0.61412419247181
