    26
        -50.45583349  Gyration_radius:  2.47489499296 Dipole_moment: 7.440
 S           0.38331727307839    1.38009040578964    1.22308695686386
O          -0.94501349301920    1.52222503514065    0.59012881324472
O           0.57416434308592    2.20661055350920    2.35959887286736
O           0.63910189840442   -0.05370503234462    1.43001533085531
O           1.41387712083838    1.82263322611503    0.10532117419615
H           1.52229820992842    1.06864500844249   -0.50163837216383
H          -0.86645662352381   -0.55182432053955    1.98046996311714
O          -1.82382376201052   -0.72465823027807    2.10330688056034
H          -2.23622690501698    0.13734271637977    2.00046052119569
O           1.81757398735246   -0.37356262093734   -1.49069206970799
H           2.50828067348559   -0.13737782571222   -2.11171319024909
O          -2.21062732020220   -2.32025110711530    0.03852456696332
H          -2.19730007489845   -1.78044125820854    0.87155089260208
H          -1.84277065693791   -3.17331658709700    0.27271370347994
O          -0.74903113827171    2.34105437347172   -2.00656250696662
H          -0.21354510719496    3.12101343354700   -2.15452510060140
H          -0.87363474741305    2.28668325187293   -1.04342075647556
O           2.78828279462586   -1.33462299830323    0.73902869055995
H           2.06006150587588   -0.81706197605609    1.16147575612049
H           2.72646341021252   -2.21984287010899    1.10118028915363
H           2.25909667243478   -0.83536497487253   -0.73138155859538
N          -0.94914210635488   -0.33632479797465   -1.20785505951709
H          -1.39269120172530    0.09624924236938   -2.01622668951657
H           0.04366134629640   -0.50852725064112   -1.41698833656156
H          -0.99218460525815    0.38898728822939   -0.41298982503764
H          -1.44373150378854   -1.20465265467684   -0.88286897638970
