    26
        -50.44835300  Gyration_radius:  2.42109354718 Dipole_moment: 5.949
 S          -1.20078997718075   -1.89581756514265    0.13629572946013
O          -1.39300951064823   -0.59468070087091    0.76819304018934
O          -1.66978893742308   -3.01003737279902    0.88898805868348
O          -1.58511985822907   -1.84716848461992   -1.27085738962559
O           0.43137257153648   -2.01816693251583    0.03667748900066
H           0.77229277420926   -1.44858566146373    0.76545954244357
H          -1.57119050285248   -0.33844498741489   -1.50914525967406
O          -1.36949633024820    0.60917736202080   -1.79792433949926
H          -2.11714309613399    0.89302224440504   -2.32508287336452
O           1.33338676509128   -0.14733227278490    1.65745258403724
H           0.96992751394179   -0.21314576345980    2.54415096099269
O          -1.12893141548924    1.06567354135719    2.76894146784991
H          -1.30995420600304    0.35838102011336    2.10933653529507
H          -1.94370438868949    1.18034036002395    3.25820749063725
O           2.49222998019306    1.25281419758087   -0.57299905924089
H           2.73988762765438    0.76306485841441    0.22010151480695
H           1.73002879726600    1.79535346155667   -0.30315433491028
O          -0.01466901261946    1.87333809681178    0.35463419849122
H           0.79163315320416    0.54944284521761    1.22634499238157
H          -0.62894747391959    1.42197489170818   -0.24967058937372
H          -0.49855568557047    1.96689819356144    1.19026449526857
N           1.05137855409142   -0.44816326956498   -2.00721814617278
H           1.73876750279958    0.21586306667354   -1.54398014360568
H           0.81357790150554   -1.20480279158097   -1.30746643682104
H           0.15371077469787    0.06822558157434   -2.17091477205661
H           1.41310648884688   -0.84722390896133   -2.86663475525421
