    26
        -50.45583348  Gyration_radius:  2.47493308125 Dipole_moment: 7.437
 S          -1.31991517021161   -0.89435933439781    1.00332465225815
O          -1.17047427429142   -1.43353241815880   -0.36495229460717
O          -2.06493828039484   -1.72810861512257    1.87567962250532
O           0.01234624957688   -0.49939785235755    1.48606959463327
O          -2.10844346598190    0.46617885724933    0.81858623989142
H          -1.46347842843567    1.13564846719944    0.52796625038997
H           0.92747123834823   -1.79703344010157    0.94171331311874
O           1.35125821684869   -2.50550878287288    0.41253670423170
H           0.61901885103871   -2.93906204808589   -0.03419821504280
O          -0.23833501960019    2.36291461296574    0.15692233379676
H          -0.69805997091610    3.20353008958949    0.13430348716008
O          -2.23610510217063    0.24168350146178   -2.23827570753048
H          -3.13808465560205    0.52062158460741   -2.07834099620664
H          -2.06747840277000   -0.47761184311106   -1.60551845654025
O           2.80448475219980   -0.99536338496407   -1.18890363131638
H           2.35473281839766   -1.67860410189693   -0.62630086881304
H           3.55112040588684   -0.68329872417993   -0.67605498576749
O           0.63314952049687    1.78380608023193    2.55332818093933
H           0.15946461389625    2.27676828522759    1.06187537829764
H           0.35862522963394    0.86323627206770    2.32110674388418
H           1.53270807126617    1.71646031412840    2.87713877061867
N           0.46157523754280    0.23013242181859   -1.48566384773100
H           1.45298740141157   -0.11841053024925   -1.47991828678088
H           0.35385694418238    1.10706022314757   -0.95805145446375
H           0.08811268128605    0.35509717088152   -2.42492597590628
H          -0.15559945164228   -0.51284680508579   -1.00944656101913
