    26
        -50.44715050  Gyration_radius:  2.46294749989 Dipole_moment: 3.016
 S          -1.29911139184982    1.42175935028644   -0.15343273027604
O          -0.16111707796551    0.98606657871742    0.60630824541997
O          -1.56761699056565    0.67547737743994   -1.34859584849584
O          -2.52439127255800    1.42247018635611    0.76842116190915
O          -1.13397216739072    2.92547453396876   -0.50001994954729
H          -0.35143930416927    2.91247112953854   -1.10271391426237
H          -2.32209671104348    0.78201403436537    1.54012904202157
O          -0.35807620093701   -2.16587669285338    1.42237023980119
H          -0.79412602432985   -3.01301061764202    1.52656315635293
O           2.46528758438671    0.04295317276983   -1.26742787515298
H           3.37652032667210    0.32372983550369   -1.36712472203301
O          -1.74545788164095   -0.19173602598540    2.58125698121661
H          -1.05598823265035    0.33081937857678    2.99913414949365
H          -1.26369032659444   -0.92799098214056    2.12532990038356
O           0.73439612155708    2.00825970609391   -2.06869890149678
H           0.04410700474350    1.45990597924818   -2.45582394626594
H           1.39584627717535    1.36994427959854   -1.72287165605418
O           1.96681001042099   -0.46105985694675    1.31675376920282
H           2.34570899177478   -0.16139440719689   -0.30887403791401
H           1.25424364719542    0.18896384418037    1.20331416472526
H           1.49938743656557   -1.28757264200190    1.48611252690226
N          -0.07940018901581   -1.76331912115844   -1.16964855115221
H          -0.69521215849786   -0.96184081921804   -1.29891372907983
H           0.85852827186711   -1.44070153736042   -1.38253030770196
H          -0.26004929026102   -2.01488869599453    0.43078330254500
H          -0.32909045289771   -2.46091800814263   -1.85980048052582
