    26
        -50.45991098  Gyration_radius:  2.62814615496 Dipole_moment: 5.342
 S           0.83914423409283   -0.35855294014783   -0.43962315034805
O           0.72963725375444   -0.49641494627209   -1.89107411200074
O           0.65307799096544    1.01981835616474    0.00108056839824
O          -0.12283181879304   -1.25857642870298    0.21858969970740
O           2.25087037165200   -0.82538340494911   -0.02983271166242
O          -0.53842056462483    0.45771338176208    2.30922724601650
H          -0.17707013058662    0.86238553136449    1.49710258739763
H          -0.65304613385049   -0.46403546934029    2.04991457158066
O          -1.02966170305524    1.48124325815663   -2.13555541771274
H          -0.75660113366586    1.89362878005532   -1.30819108359007
H          -0.31967141137838    0.83041049195119   -2.29418678785150
O          -3.13760687735836   -0.10715746104575   -1.99806808943425
H          -3.58700197263124    0.13220082111827   -1.18542756299996
H          -2.44126382888430    0.58472795596679   -2.14043416988563
O           1.74167456162113    0.66062419810993    3.70407650148097
H           1.65253823546183    1.35499004887635    4.35853045253370
H           0.85128647732839    0.54502703382051    3.29930471673752
O           2.98145777259987    1.17669922699071    1.37495859855893
H           2.68867850490024    0.96347186998940    2.28999702426769
H           2.68030351879301   -0.10696473640359    0.53657683842551
H           2.22953400023439    1.61956086797607    0.95569268881375
N          -1.33912960087320   -2.03915741277942   -1.85935388279686
H          -1.51174658448319   -2.99760483054327   -2.14046242603642
H          -0.52769888962516   -1.59889438669473   -2.34501175530828
H          -2.17872521348865   -1.40456833603819   -1.97622226768457
H          -0.97772705817288   -1.92519147931560   -0.85160808664709
