    26
        -50.46068157  Gyration_radius:  2.42684625848 Dipole_moment: 8.209
 S          -0.54661402755332   -1.33767566431097    1.41411953973843
O          -1.21467220861848   -1.44140948927954    0.09208259319846
O           0.10067761066689   -2.56064628909195    1.78561850242768
O           0.59920780385182   -0.25639050376472    1.16807549581536
O          -1.42770950348876   -0.72349496642752    2.37949224632374
H          -1.44829752774640    0.85687132771177    2.15287024653861
H           1.34540893964011   -0.85150842494307    0.84560020169713
O          -1.59362796369328    1.80169385637871    1.87324576727823
H          -2.28078039235089    2.13633289535576    2.45214928770941
O           0.41903624542171    1.27907265732835   -2.17990821616868
H           0.64476861158920    1.88075106052587   -2.89046344101060
O           0.61026096123166   -1.61253562030613   -1.85547815007204
H          -0.13244655394435   -1.70394833595754   -1.22606148516634
H           0.58649610885841   -0.69444983364174   -2.15330172086671
O           2.22885955345612   -1.97339933997339    0.23867392714569
H           1.72855138794901   -2.60997633906983    0.77626641411162
H           1.82343984769727   -2.00129702085119   -0.65745090204470
O           2.05707660912255    1.60360126237633   -0.14351001205067
H           1.47932396954751    1.21062069076261    0.53274452870279
H           1.08035036534795    1.43650288967654   -1.45647630295106
H           2.83841891524934    1.04504533248000   -0.16933878744212
N          -1.79722737436752    0.93091904801170   -0.61603618626911
H          -1.02883891850318    1.19895835070580   -1.26067521328290
H          -1.62473396431412   -0.11333274376646   -0.33573789834815
H          -1.74381956905126    1.46165419551591    0.29236972186357
H          -2.70310894599445    1.03804103452458   -1.05887013686659
