    26
        -50.44575866  Gyration_radius:  2.63210040899 Dipole_moment: 4.111
 S          -1.48950160632111   -0.44566252497023   -2.12454456496525
O          -0.34305158957802   -0.36913939770436   -2.99932562421040
O          -1.34739310772529   -1.53732634022966   -1.15023639789434
O          -1.84579191458025    0.79328085730868   -1.47159913200662
O          -2.71898340098438   -0.84355038547997   -3.04838963259934
H          -2.29446729201264   -1.40023332147451   -3.69317785472719
H          -0.86358796273043    1.83631410410831   -0.78210626487801
O          -0.25873148817521    2.43029093056912   -0.26555195332548
H          -0.61011168909005    3.31547902711169   -0.37354373070296
O           1.52089358961961   -1.56863408676734    0.93982847347791
H           1.72782758470346   -2.42190526084698    0.55676335940722
O          -0.99912086123286   -1.20947234378997    1.26020480692376
H          -0.01038142008478   -1.44958105065451    1.23213252422814
H          -1.27332659848120   -1.30124066564870    0.23972943695780
O           1.71753180574549    0.36175484600066    2.91978512929318
H           1.77428244566797   -0.04015813422964    3.78777495399907
H           1.84613988423088   -0.34799241756278    2.27058222277159
O          -0.71939390760200    1.15269098719034    2.02596066555808
H          -1.00981788844354   -0.18982915389056    1.56151669047618
H           0.16202567334758    1.05003628653929    2.43947085067101
H          -0.57569086435193    1.70298742612078    1.22186287408315
N           1.52884380001136    0.14774499038895   -0.96615388033813
H           1.20294104148329    1.04868259865598   -0.62772399059150
H           0.88339093475464   -0.13278615731421   -1.71020198000226
H           2.43388108590081    0.29924720744224   -1.39508615846268
H           1.56159371603593   -0.88099803105352    0.15202917690560
