    26
        -50.47071378  Gyration_radius:  2.41578741906 Dipole_moment: 4.140
 S          -1.67298934590207   -0.53344332609785   -1.01268598657591
O          -2.13635493725095    0.45234919753221   -0.05044355216529
O          -0.70463614163574   -0.02984426972700   -1.95663782656702
O          -1.20581241186904   -1.75236540140537   -0.34889028880808
O          -2.94563208989148   -0.94904690257334   -1.85797907604003
H          -3.61178509162930   -1.04960177854622   -1.18668036605190
H           0.28323398336243   -2.06507863178252   -0.97848014492477
O           1.14839539823146   -1.97817940693155   -1.44215372729325
H           0.90879794891095   -1.51721379895413   -2.25401226664996
O           0.99877706403139    0.32712723623359    2.29851629046910
H           1.30440690528379    0.28076359497763    3.20502270017801
O          -0.37118754965848    2.33187566138788    0.75249577100098
H          -1.10630729240445    1.76273574829816    0.45377454683132
H           0.09637376296079    1.82664010035933    1.43089792149019
O           1.06627183864202    1.88568396738306   -1.41921651257315
H           0.39863485645496    1.29845932889298   -1.82816526076364
H           0.57536502056542    2.31337213836027   -0.67776844021117
O          -1.29741368120198   -0.87311676256840    2.11074759366665
H          -1.84784475821656   -0.16568202358563    1.74147949090949
H          -1.19899335472728   -1.46563809808600    1.33831953595145
H           0.13387262252335   -0.17884849191294    2.27121384402814
N           2.26450957759840    0.00857686271054   -0.10269180181006
H           1.86843765744802    0.85149884901334   -0.67210397369918
H           3.27806587323672    0.01583941170488   -0.08663750686713
H           1.87818237199377    0.06798228648689    0.85898311516225
H           1.89563175314827   -0.86484551116104   -0.58690408868546
