    26
        -50.47229307  Gyration_radius:  2.48034082218 Dipole_moment: 1.993
 S           2.06140013411332    0.80810254907100   -0.53965404116955
O           1.54979569902085    0.31036746542043    0.73373420463472
O           1.87362479864300   -0.15438075221537   -1.60580108829857
O           1.55315325683044    2.13158531210007   -0.84405714019383
O           3.62724354921580    0.97737625536172   -0.36310852522500
H           3.67672816999064    1.82411021859202    0.06767621396932
H          -0.01752171168309    1.98349109462169   -1.11406316691526
O          -1.97943939431451   -0.68021204092184    1.75422607036995
H          -2.61215074954666   -0.65056733245744    2.47204562491503
O          -1.00195349286474    1.89655125138446   -1.19303676267795
H          -1.26251187283441    2.49292832883928   -1.89666673099263
O          -2.10593177588689   -0.60266021604662   -0.99492081735496
H          -1.77569523358554    0.30476945996668   -1.13650606600391
H          -2.25211799473673   -0.67726969878385   -0.03458014725346
O           0.42671807757868   -2.01119529021068    1.50455132969866
H           0.97945540289786   -1.21133940670018    1.41123089611144
H          -0.45242579343629   -1.67760215860949    1.75967285683639
O          -0.65037195461474    1.55306922486448    1.56594053543300
H           0.23339933545045    1.18390426355237    1.35818096055799
H          -0.95193461171888    1.94291474083044    0.73389663273984
H          -1.50217427061700    0.19919030893916    1.76021110903443
N           0.11532845914437   -2.01853673548928   -1.10029901426253
H           0.26044009408967   -2.21954666961159   -0.06434598418161
H          -0.82568254889855   -1.53263133490039   -1.19092632928825
H           0.86140887604917   -1.31824338340713   -1.37302036937005
H           0.17121555171545   -2.85417547418364   -1.67038025111688
