    26
        -50.45989751  Gyration_radius:  2.59251427164 Dipole_moment: 3.521
 S           1.09063527374911    0.53803103259647   -2.02527133969676
O           1.11092719742739    0.78387839847874   -0.59739871252547
O           0.73059898564833    1.67478115408068   -2.82712999877368
O           2.59167770554110    0.15430113244147   -2.40785469194948
O           0.28991916147176   -0.65803250437702   -2.33358618103287
H          -0.03981378459225   -1.67488218267019   -1.15491226086006
H           2.63676610299899    0.34934475476623   -3.33877290438436
O          -0.35937982855630   -2.24443712476719   -0.40067626424648
H          -0.78053029048830   -3.00264785651778   -0.80798844595765
O           0.76554080177560    0.90796276234265    2.15816454966623
H           1.14947895155981    1.52821596846128    1.52999198461201
O          -1.70002774744963    0.99504037993718   -1.78011226609623
H          -1.15923398572498    0.27033098215048   -2.14896969258713
H          -1.21787844021027    1.77850706069567   -2.07114402970326
O          -1.80941317048037    0.56680842160585    3.33018307771555
H          -0.87209871486863    0.77231440179825    3.19731932663324
H          -1.99565020218784    0.71435569286779    4.25763508940682
O           1.89240232966287   -1.20856402485737    0.99439902429116
H           1.26404844436001    0.07323317903019    1.99669143384551
H           1.26258825136258   -1.89142439075515    0.73539660988868
H           1.84506044727821   -0.54797057844872    0.27618913466020
N          -1.36600274067852    0.02346219378058    0.68830610466629
H          -2.08598316039489    0.06634114150979    1.41190554741257
H          -1.61544562608518    0.54036938015094   -0.19199038907573
H          -0.49521990682103    0.44457190689433    1.09432505162892
H          -1.13296606425736   -0.95389131119431    0.41530025244056
