    26
        -50.44890323  Gyration_radius:  2.42463591769 Dipole_moment: 8.960
 S          -2.07493010323653    0.23799073113909   -0.72434922555423
O          -1.17791523730600    0.58078479941613    0.38377145714097
O          -3.28298089855918    0.98700918974247   -0.76391460605644
O          -1.19106489945061    0.61587965827154   -2.04309227722859
O          -2.20164158710944   -1.20982916703780   -0.83652022333348
H          -1.12507089470602   -1.86210100235768    0.01860543967062
H          -0.77435866127400    1.47842581508641   -1.79385800964126
O          -0.30299535431924   -2.32427324890198    0.38843227112934
H          -0.55506678761372   -3.23864626526964    0.52599242394956
O           2.30821764078257    0.70407793816651   -0.20617472184802
H           3.25112454857219    0.79631220867374   -0.06486096176555
O          -0.53785838566545    1.07547812858126    2.90610567073590
H          -1.24231565649833    0.79893666597862    3.49360194474054
H          -0.89311778989320    0.99256291267461    1.99887684716469
O           0.15540240115826    2.48256200989530   -0.82768064310572
H           1.05139905931147    2.14012592526765   -0.70153495806882
H          -0.36193855723762    2.06415349429730   -0.11387001834338
O           1.35209396125570   -0.53812939277176    1.84123264383698
H           0.79984357041740    0.08218309228652    2.35924514785108
H           0.72201474589519   -1.16977287650438    1.46131081521825
H           1.93686076230540    0.30602208259386    0.64655481448131
N           0.84741049785486   -1.01600581352553   -1.61126744276461
H          -0.00079120792077   -0.44645225512634   -1.88600488019531
H           1.23649693266276   -1.50207824488212   -2.41244810677204
H           1.53910980875467   -0.35049291471488   -1.17372762518966
H           0.52207210188141   -1.68472348093798   -0.86442578605785
