    26
        -50.45844185  Gyration_radius:  2.43459610123 Dipole_moment: 7.232
 S           0.64144857193179    2.03442112837876    0.31755366162366
O          -0.17311140693414    1.69655956383075   -0.85468756878528
O           1.14014685704120    3.36402832182717    0.35006715627446
O          -0.05699883050487    1.62037933205997    1.55210816484635
O           1.87255309285340    1.01435779089189    0.24910830561299
H           1.82350602675511    0.54418927764708   -0.60407278484247
H          -2.19492717096890    1.68138420160268    1.18025985511268
O           1.84996835332143   -0.76460913281852   -1.78670299058186
H           2.29718336849531   -0.54165056585566   -2.60408203970425
O          -2.49394072846416    1.41167045565202    0.30503959680743
H          -1.72353366620715    1.63596119473244   -0.26658125984194
O          -2.30972930294810   -1.17096767483381    0.02702324523184
H          -3.17028299854666   -1.59037856946431    0.00525988644268
H          -2.47609070593326   -0.18551859557712    0.11385287750105
O           2.27682691898444   -1.73653301567456    0.72481149115271
H           2.20653739400199   -1.64648253273999   -0.24130912844738
H           2.80221145507897   -0.97876776841481    1.00202713225679
O          -0.70419373005223   -0.53910300430631   -2.18790082971041
H           0.87519185237572   -0.79176952809981   -2.00232349231369
H          -1.29895760910391   -0.96211693401537   -1.55078380768758
H          -0.61646535808641    0.38278807620646   -1.87187910967982
N          -0.11631040327973   -0.91852521381269    1.63366383656911
H          -0.26512842554902   -1.23346841427296    2.58691466637308
H           0.79327750749592   -1.30458180617803    1.26813581616700
H          -0.91297519215623   -1.20531728027009    1.03615972514891
H          -0.06620586959905    0.18405068349810    1.61833760447620
