    26
        -50.45207865  Gyration_radius:  2.41630341135 Dipole_moment: 10.172
 S           1.49382449856491    1.29710677316648    0.66937375870788
O           1.20616606777654    1.75591788929872   -0.67894530321000
O           2.50659574799644    1.97856914418029    1.39461470218124
O           0.22647487362956    1.15335649943490    1.43297182037101
O           1.99313835683107   -0.22043094012658    0.49979919487734
H           1.48466434245339   -0.59551383623769   -0.23802868605950
H          -1.20434266972581    0.93669876748632    0.92666625444830
O          -2.13049981880203    0.62448298263147    0.67138758987191
H          -2.71798245231579    1.00528279043497    1.32580444411024
O           0.58181899987704   -1.58319685562703   -1.39264848426553
H           1.17932501396451   -2.21237309223752   -1.79877287990144
O           0.53715887468977   -1.05964936676012    2.68252945322244
H           0.44388021443621   -0.11631104712555    2.36984995898964
H           1.46761360144001   -1.25736385613676    2.54293601697121
O          -1.33618472599167    1.94597150845298   -1.71253320371115
H          -1.87048762221400    1.52260707987501   -1.03028658814791
H          -0.48294329538564    2.13902282081924   -1.28474686909617
O           0.56124781667901    0.45173337955049   -2.91720847723094
H           0.50004232407509   -0.81197917723495   -2.05646810739573
H          -0.31136604102012    0.88671610010609   -2.87488487372301
H           1.08886062608802    0.99959931321905   -2.30305075578660
N          -1.05862750659256   -1.79859658883715    0.74929822613407
H          -0.49026039162579   -1.83938011369381   -0.12145463536078
H          -1.61718359201647   -2.63657822614468    0.86773968596312
H          -0.39204190724104   -1.63446132839855    1.58206731196833
H          -1.65889132655778   -0.93123065146467    0.69399043538460
