    26
        -50.45636682  Gyration_radius:  2.61346608471 Dipole_moment: 1.509
 S           1.44837435172946   -0.91205294518715   -1.78333790896967
O           0.28981489675126   -1.64936643874645   -1.30963770696604
O           1.08613563044358    0.42322286311246   -2.22430534500653
O           2.53887412982909   -0.93033197527209   -0.82082843348305
O           1.98914200339218   -1.66708234375802   -3.07092740187415
H           2.34695543948524   -2.47037426154959   -2.70628033854876
H           2.18400860771636   -0.27689631798048    0.56445376087433
O           1.93258832389249    0.08757566657882    1.45983123195033
H           2.73402778212696    0.06183702593496    1.98515053384265
O          -2.28779219589206   -0.93253785340723    0.46017057960499
H          -2.62026459808134   -1.65221851299498   -0.07855718098475
O          -2.75406499399917    1.83406399777868    1.21197918795844
H          -2.85907218045639    0.87588399845191    1.21918554232325
H          -1.95269072736069    2.02132934886640    1.70862460310648
O           0.24105449445083    2.14791891831094    1.21729921932371
H           0.79502662874569    2.90152957403285    1.00767937460326
H           0.85001160836883    1.39478982971244    1.38086479615440
O          -0.01620429257310   -1.90716763058662    1.30016968511222
H           0.60989829741982   -1.24752504727548    1.63151269896120
H          -1.48852080703657   -1.30745285028227    0.92305346235615
H           0.18900081035328   -1.98287962504952    0.34372801388626
N          -1.06023804865974    1.04079683609787   -0.90348101877562
H          -1.74406485918897    1.61670704392331   -1.38538539737514
H          -0.25226439599059    0.76026628714967   -1.53591377682311
H          -0.66227953429934    1.57581932843933   -0.09789834866200
H          -1.53745639118552    0.19414508369656   -0.49714984260129
