    26
        -50.45636690  Gyration_radius:  2.61335816912 Dipole_moment: 1.514
 S          -1.97914476900708   -0.89131561702810   -1.18188726384707
O          -2.01553647087914    0.40997104121608   -0.53715131994747
O          -0.88627261468557   -0.98374363458093   -2.13358108232822
O          -2.00359184234218   -1.97995820045519   -0.21740853688636
O          -3.31319303156474   -1.03015939502002   -2.03122285820864
H          -3.98063980816075   -1.11473249917545   -1.35769948621980
H          -0.78325355140855   -1.98815372210311    0.77406308120841
O           0.18778515014112    2.42476816119938    0.63219950781556
H          -0.51855275603944    3.02814197431569    0.39608048340173
O          -0.03617239909600   -1.95241459425179    1.43609630225128
H          -0.13581062249781   -2.73364883563892    1.98260789227936
O           3.00071580492221    1.83538849558740    0.20955801160254
H           3.07158178588953    0.98199639041126    0.64617873809359
H           2.22423842265926    2.26695083959050    0.58376746629915
O           2.21812350457596   -1.07134994420698    0.29263392270026
H           1.42651605561294   -1.39060474752724    0.77862277110290
H           2.58388970170480   -1.83470773255779   -0.15711599765205
O          -1.11262477316207    0.57576230317757    1.93850359170899
H          -1.62124963115637    0.48716793676881    1.10421476620088
H          -0.64190925630491   -0.26541471533880    2.02662154525418
H          -0.23177423956261    1.77207190536986    1.25793226399160
N           0.90778253519810    0.69962930467679   -1.30838418787659
H           0.13900389242200    0.09342824504808   -1.72426646160772
H           1.45068185046300    1.17596045462210   -2.02243258417440
H           0.51235534153972    1.40790873420418   -0.63633234101068
H           1.53705173074563    0.07705790170269   -0.75159820414610
