    26
        -50.45844158  Gyration_radius:  2.43465300953 Dipole_moment: 7.234
 S           2.00712642139122    0.29071868450223    0.73457359741551
O           0.88539565879593    0.99582342192136    1.36416792399459
O           3.29793334297183    0.66758187918804    1.19211309338922
O           1.76052416098488   -1.16617893164025    0.75504979833294
O           1.87625084322372    0.65028037811104   -0.81906644318403
H           1.17981597914609    1.32724013983663   -0.91059202566787
H           0.51624022087392   -1.62383039627746    2.47902216560099
O          -0.16652065467788   -0.98235015880465    2.70323073232995
H           0.21465814033429   -0.13502079788614    2.37566466884073
O          -0.22774664653047    2.19585979982284   -1.52012774244828
H          -0.11058950822137    3.14603123326727   -1.55535832167230
O          -2.12898833406488   -1.08876060990111    0.99467620681363
H          -1.43896045491084   -1.06714200104730    1.72245341507849
H          -2.92076723805200   -1.46229699208662    1.38261401115234
O           0.17817321644366   -0.09116349736454   -2.94782843380053
H           1.13786011017505   -0.01914171634998   -2.91755642960080
H          -0.14281209556960    0.77722487659848   -2.64906576950090
O          -1.58322646393568    1.63940959483062    0.62172391541044
H          -0.72135615036272    1.53802272488782    1.07365470582282
H          -0.85362410604422    2.02139183845892   -0.76154727804128
H          -1.99486027377127    0.76411563728637    0.67757421777482
N          -0.17023088101029   -1.68504753906076   -0.81244088335908
H          -0.10304952454506   -1.07399480531077   -1.66800787094185
H          -1.03499479387263   -1.48767649328783   -0.27670923913869
H          -0.14499208909317   -2.66234263304299   -1.08495286208087
H           0.68874111032569   -1.46875364666788   -0.15326514252205
