    26
        -50.45444501  Gyration_radius:  2.48869757567 Dipole_moment: 4.622
 S          -0.73245220188151   -0.29442241567520   -1.42570226077530
O          -1.10919406396565    1.07790871979384   -1.04933161712678
O          -0.46209729486443   -0.41417782352790   -2.83778605699847
O           0.40017568297455   -0.73277966220576   -0.61040810644201
O          -1.94796954582076   -1.21521146496966   -1.08710676090238
H          -2.05528154731502   -1.20818473154908   -0.11007547488760
H           2.21430351546472   -0.71180785525761   -1.88821536890698
O          -2.08523106260917   -1.47862995845309    1.56567460966007
H          -2.74468893302884   -2.15513838219443    1.72942180137021
O           2.12187594919505   -0.11754765912905   -2.64174874815535
H           1.20364447938138   -0.30280903376079   -2.95585498185921
O          -0.28413633202671    0.10993623158058    3.07976217668170
H          -0.63249460034612    0.65284340426402    3.78868563198394
H          -1.04644610832704   -0.26505235153436    2.61201511187600
O           0.46870377627880    1.87091655198704    1.05191092126558
H          -0.27236146253318    1.59569180080584    0.48318417369948
H           0.46470948232491    1.23883831036066    1.78654330967542
O           0.36737790623375   -2.30919919105353    1.47123218781236
H          -1.19416891748631   -1.94123298294331    1.56150096012541
H           0.47917108387125   -1.80213629634218    0.63187607298541
H           0.76835180363495   -1.76005596283138    2.15230541788110
N           1.24673434410353    2.06367201462496   -1.47764600046697
H           0.21161683878938    1.81020384421625   -1.51843321254115
H           1.44562606387392    2.96306026218387   -1.90297030657972
H           1.41542403087151    2.07017503735468   -0.45035113097128
H           1.75880715325217    1.25513957424825   -1.95848235848798
