    26
        -50.46827126  Gyration_radius:  2.47340254161 Dipole_moment: 4.498
 S          -1.03853590672068   -0.37751823689602   -1.32104902486503
O           0.11357611820135    0.53721441527478   -1.48150324952287
O          -0.96379136692335   -1.48851156300940   -2.23507111596927
O          -1.10177144038369   -0.80932434663087    0.07893421464608
O          -2.32017648230117    0.42543238693702   -1.64316920777368
H          -2.43962690321581    1.13192656718658   -0.94748331021504
H          -0.30186128906440   -2.76912424670430    0.13513085072573
O           0.25285830422669   -3.08240331795321   -0.59055348959287
H          -0.22577253172696   -2.73190080897277   -1.37806361765761
O           2.35897647104922   -0.47242617416745    1.93026114270422
H           2.34781913896215   -1.20494901643717    2.54874108366236
O          -2.52256422773017    2.38264527451216    0.05314853799620
H          -2.92731594441436    3.11054190245081   -0.42226266383917
H          -1.55415583974519    2.60725696024882    0.13887237155167
O           0.07727700808354    2.63939981102665    0.14477879429430
H           0.19223157428740    1.98431524588649   -0.57444012278359
H           0.23780933053437    2.13254967483531    0.95649309562226
O          -0.09682073922306    0.59305450480409    1.98736782834443
H          -0.50235187125411    0.06208299107943    1.24441821734261
H           1.51237898571504    0.00703692888039    2.05353575115590
H          -0.79922246892000    0.71564074557395    2.62779026828960
N           1.97042734678122   -1.07997807647264   -0.66536705705292
H           1.29209690657513   -0.34409236577786   -1.04475482379535
H           2.78126950411315   -1.16167739618324   -1.26966429163492
H           2.24740228850310   -0.82046878422547    0.31217623509884
H           1.40984403339510   -1.98672306517878   -0.63826641863138
