    26
        -50.46365737  Gyration_radius:  2.44735556245 Dipole_moment: 8.569
 S           1.63806544729607    1.34424923947996   -1.19605610563719
O           0.48898368591621    1.95495029144118   -0.53833756065425
O           2.19986218721217    2.09973112812420   -2.26566662234878
O           2.78195904988467    1.26237806532086   -0.06408067928608
O           1.36192782008384   -0.06417463805410   -1.49370072722683
H           1.54679338990338   -0.79219567758284   -0.12191593005351
H           3.29203238054269    2.02275649567700   -0.31684557401279
O          -2.08355958707002    0.01949085345978    1.67233244583471
H          -2.59100810109678    0.21703202541814    2.45946422986516
O           1.57892856821595   -1.27271592501781    0.75361394054092
H           2.50716584039814   -1.44504135619203    0.91516146481291
O          -1.05068779534784   -1.01960074558658   -2.01482305979274
H          -1.56986078053840   -0.19920325995385   -1.80545629141734
H          -0.12136920289495   -0.70597936306626   -2.04586165831192
O          -2.04502000463517    1.16333563673089   -0.95604296746350
H          -2.28105168122844    0.90077578396321   -0.05561208562673
H          -1.17683303587081    1.60535778450497   -0.87759253154129
O           0.32319994989948    0.93585345954059    1.86485783189323
H           0.90239417302758    0.17057057098050    1.72291720107616
H           0.40409311978097    1.45402997861376    1.03148699202511
H          -1.17637832422784    0.43692448880794    1.80580166574113
N          -0.99418425803261   -2.04837865897424    0.32613434811988
H          -1.06037161577217   -1.68669181832213   -0.72721789072662
H          -1.54398151512350   -1.38339078807999    0.90961900508687
H          -1.33322533727694   -2.99831441157998    0.42185115689108
H           0.00212563707795   -1.97174914977562    0.59596941213170
