    26
        -50.44597406  Gyration_radius:  2.63444770755 Dipole_moment: 3.255
 S          -1.97074003604884    1.58859957984453    1.25053651098601
O          -1.77970582977797    0.40727170018011    2.04587230485194
O          -0.80646349178716    2.37830853480943    1.00783564491020
O          -2.69908872934228    1.23964532770447   -0.03423539956896
O          -3.03068531493695    2.48745289151003    1.98791036504052
H          -3.71535139633472    1.87723354557243    2.24870275564141
H          -2.02245083984208    0.81620816988168   -0.78845158409177
O          -0.28967499851957   -2.16363323147798   -0.93955506572825
H          -0.54588268662320   -2.95916008281946   -1.40689847180483
O           2.29601847278492    0.02006635055353    0.94760261912557
H           2.58011686943257    0.54887965030704    1.69424133183929
O          -1.11378540702701    0.28294102399760   -1.64577302351920
H          -0.93548130264672   -0.64595707255950   -1.37498627361705
H          -0.26810012941255    0.78897284278567   -1.45933414117328
O           0.99021940100902    1.58645097476454   -0.84922020842378
H           0.46661514351950    2.12912950885738   -0.23724347108925
H           1.53875307589967    1.02222026408128   -0.26494910304565
O           0.20897861691148   -1.39054977899164    1.69842473954026
H           1.54373473686023   -0.53883927293604    1.28109068056785
H          -0.50424318277027   -0.77586716243542    1.94613862093323
H          -0.08034169643667   -1.81108797622634    0.87467215674695
N           2.13367091464923   -1.37192473893176   -1.65839070765394
H           0.65053688825267   -1.94271245414206   -1.22055606350718
H           2.82890461803075   -1.97681742488879   -2.07665977234039
H           2.02259384500144   -0.55979994914857   -2.25441405072372
H           2.50185244915010   -1.03703122029843   -0.77236039389587
