    26
        -50.46160092  Gyration_radius:  2.57731745158 Dipole_moment: 3.170
 S           1.79584863957664   -1.34209361880352   -0.64648505569816
O           3.09889173472174   -0.80510706200247   -0.37054192391635
O           0.95915262446568   -1.47258304721622    0.54829775805511
O           1.08143398606400   -0.62274390019013   -1.69897390337355
O           2.00270927363705   -2.82575016338377   -1.17929065057400
H           2.90022011868311   -2.84002336931467   -1.49820880323183
H           1.61110995079592   -0.04695226830610    1.27536275234057
O           1.85346950388357    0.87952408724415    1.46785076346711
H           2.76526636507409    0.93659494394529    1.16747318312988
O          -2.24615866254001    0.27134923808107    0.36664964666659
H          -2.12452514872952   -0.55169991872244   -0.16044874743037
O          -2.30978611783327    2.82736165571414   -0.95643033829455
H          -2.62654152852291    2.03071273543224   -0.50853505695470
H          -3.08709266893623    3.30564864011545   -1.24646997641346
O          -1.25916126255187   -1.84078603300924   -0.94108069358096
H          -0.78604574613212   -1.53317021945590   -1.72280417776734
H          -0.54999937592949   -1.96982831923186   -0.28958995533629
O          -0.76101502319579   -0.47339037861509    2.48395683130119
H          -1.97403119437448    0.02113510923427    1.27251117038601
H          -0.21060119144869   -1.03992704268614    1.92223938464468
H          -0.16064431596598    0.17024535293404    2.86795221890156
N           0.01633634503260    1.41192657902665   -0.43693981202261
H           0.43443215555121    0.70350840948365   -1.09779003301278
H          -0.21928492370051    2.29164152195009   -0.89386294682391
H          -0.89535814744800    0.99566653229154   -0.07252444896511
H           0.69137458981922    1.51874053546734    0.34768283451020
