    26
        -50.44653614  Gyration_radius:  2.46345838987 Dipole_moment: 3.727
 S           0.51880239348610    1.08076165288890    1.52482372621401
O           0.82065345975891    1.09593404851183    0.12841096883278
O          -0.46378047826486    0.09326591212853    1.90950662935124
O           1.80619022016699    0.86765995327863    2.34863644072493
O           0.06622443443489    2.47318944901474    1.99759934523825
H          -0.84241621277784    2.57438243179956    1.57405324605479
H           2.03403797220301   -0.09346613849350    2.18586688171338
O          -2.03815015290885    0.85340604149255   -1.51854245553189
H          -2.93345925786869    0.70236581152170   -1.82844607127825
O           1.22401300645492   -2.19512569017736   -0.88494630140475
H           1.68400112476784   -2.90567265374166   -1.33415618078372
O           1.79032052405904   -1.62502993550815    1.70444946182569
H           0.90904442160053   -1.74301522011937    2.07277108458810
H           1.69504431214290   -1.79650522313620    0.74178185230865
O          -2.18489259034532    2.11824567829884    0.84071127023548
H          -2.05969690025542    1.81188817481699   -0.09119705375835
H          -2.36243722541897    1.32067740544799    1.34940953384786
O          -1.35623725581684   -1.34653095362826   -0.19289793045333
H          -0.54823137571118   -1.78055979268648   -0.50462355386986
H          -1.09603686516682   -0.88292829520820    0.62233432369978
H          -1.74346890133384    0.00289945874715   -1.10873606113046
N           1.02083158164647   -0.07245327837220   -2.44260170894524
H           1.73467274052418    0.30006592892071   -3.05618547349979
H           1.21915709832831   -1.40789625681545   -1.50932822457846
H           0.97855784204992    0.52722098466197   -1.61922267211292
H           0.12725608424291    0.02722048635498   -2.90947107728458
