    26
        -50.44653605  Gyration_radius:  2.46333433648 Dipole_moment: 3.726
 S           0.09832232076384    0.54822908108035   -1.85899100709539
O           0.25630679209470    1.20886391205180   -0.60206641189370
O          -0.10180353955090   -0.87941993266391   -1.75868379038651
O          -1.07045573108961    1.17340446076113   -2.64946960772967
O           1.29605127045483    0.83975702225207   -2.77997136748803
H           2.04671977168253    0.32371994335048   -2.34953866624162
H          -1.88292202446629    0.85964852642333   -2.15608059289710
O           2.28190753975062   -0.63389618153891    1.25494409184828
H           2.81121381575544   -1.31510009463966    1.67475281041278
O          -2.17459987272423   -0.02463301029426    1.53982186725662
H          -2.87874390104452    0.06487592948609    2.18355797970119
O          -2.73917691996445   -0.04402494826652   -1.11222293040997
H          -2.35835489974925   -0.89990708867143   -1.33265963473080
H          -2.57258965666648    0.07526403760459   -0.15147755343104
O           2.73501060499511   -0.74698965491587   -1.38536270006583
H           2.13570336115729   -1.48433077657610   -1.53896956053872
H           2.65626295314566   -0.54185516860821   -0.42126799442271
O          -0.08888476018652   -1.74451517579263    0.79918505956168
H          -0.10938207900862   -1.52820944921377   -0.14949399603041
H           1.37055799709682   -1.00889406691718    1.17081603100009
H          -0.84319349169881   -1.27206249414029    1.18164141693578
N          -0.10492369038742    1.47996464541287    2.19284080404148
H           0.64666760542362    0.98801953659884    2.66130395960306
H           0.16276242050359    1.53657531420477    1.21076462391338
H          -1.44018021426436    0.60153588552745    1.81927317251896
H          -0.13227565201159    2.42397972748610    2.55735401656470
