    26
        -50.46160142  Gyration_radius:  2.57622014245 Dipole_moment: 3.184
 S           0.09190878149845    1.98579054703477    1.21591049594305
O           0.01107464784529    1.83720205091259    2.64198930029639
O           1.20606264093493    1.24717123316391    0.61894344555729
O          -1.16064251031197    1.67470546684381    0.52918438171444
O           0.39694636565971    3.51720973363057    0.91799349884318
H           0.06901697986993    3.97891677255977    1.68403328947880
H           1.07915657830505   -0.05128587789817    1.75292977767246
O           0.76036021052292   -0.81963913263477    2.26493284292039
H           0.44858784486103   -0.42518180625842    3.08473476037285
O           0.23207355762853   -1.12778588973728   -1.97985988811591
H           0.20098440195189   -0.16453081154392   -2.18346241664602
O          -2.21995769688245   -2.59071465049434   -1.60901468759260
H          -1.41613861310349   -2.26301117992454   -2.03564918935843
H          -2.70376029701727   -3.07937854875328   -2.27549620589951
O           0.17636691370289    1.54185332144431   -1.85791300716974
H          -0.65961969831375    1.81110971686958   -1.45904572785657
H           0.79521485794659    1.56781843777838   -1.10970985907089
O           2.39382720637766   -1.05420627914823   -0.37826332551931
H           2.37877504778337   -1.56957595378050    0.43186554635352
H           1.13063260105082   -1.27038182089352   -1.62012964370829
H           2.18888573662557   -0.14497518420058   -0.11208895288712
N          -1.09973142927051   -0.93627813981831    0.31232846558817
H          -1.31238574204031    0.09408067637909    0.39240000690540
H          -1.93813318867136   -1.51065135789090    0.23875935281432
H          -0.55034219777705   -1.06914054986020   -0.59208113586033
H          -0.49916302916225   -1.17912079379940    1.12670888522745
