    26
        -50.44653595  Gyration_radius:  2.46310906817 Dipole_moment: 3.714
 S           0.78198650720040    0.79900603085848   -1.58795932278907
O          -0.47155988997544    0.91627326868038   -0.91280466613031
O           1.74430935168599   -0.04127556773516   -0.91263034825697
O           0.56964877313180    0.27868699584578   -3.02517829424246
O           1.39420554657003    2.18787275813807   -1.84101778084781
H           1.66231014966373    2.49079372832950   -0.91855122477762
H           0.32322048248436   -0.68252412442111   -2.89407589158862
O          -1.40753264871850   -2.25737027088189    0.11390970109966
H          -2.02888631226008   -2.98055531863172    0.20970165536799
O           0.15867217640886    1.34595165576143    2.31126041827808
H           0.51676579546930    1.38687996134791    3.20037135500587
O           0.16041824680204   -2.08602500320369   -2.09190960239157
H          -0.49951293741454   -2.12932972908946   -1.36551158818883
H           1.01891743128067   -2.09350685254419   -1.65706609661705
O           1.99597590567142    2.35374071625846    0.63812473724837
H           2.52131049168888    1.54811595193548    0.60101391068965
H           1.21962122964331    2.13394019983262    1.20971537253319
O           0.78402157957395   -1.06760116201519    1.39281423514202
H           0.30419707132636    0.41832626000898    2.00019087767992
H           0.03129134969710   -1.59514516428367    1.08683552566933
H           1.21519839499209   -0.74750410239454    0.58107663332360
N          -2.50560762327386    0.03015581781382    0.84615658768680
H          -3.44804278409373    0.34290216503277    0.64910205101974
H          -1.87705581456719    0.53135113178076    0.21929205395849
H          -2.26775335638695    0.33258663867865    1.78337413922728
H          -1.89611911659797   -1.41574599511143    0.36376558189516
