    26
        -50.44721728  Gyration_radius:  2.49786635907 Dipole_moment: 9.924
 S          -1.83644840867477    0.34803021866699   -1.72070410830539
O          -1.21903787729773    1.63883193331294   -1.40895517086453
O          -2.89402894672845    0.38208300795670   -2.66772250847686
O          -0.61480045113379   -0.53057080867334   -2.35436335034264
O          -2.12387646658946   -0.39998278746165   -0.49471916250620
H          -1.65419590240606   -0.64075627608090    0.93766574663469
H           0.07348997641394    0.13163326276991   -2.60854110079701
O          -1.23627914068010   -0.91955125397784    1.81039158421151
H          -1.93086813440707   -1.37817989692494    2.28491569847621
O           1.99744474418244    0.50999347175331    0.32794502361291
H           2.35394433116127    0.24582735487922    1.18675002878404
O           1.43398812168031   -0.71394649669669    2.73238933542046
H           1.53415241349371   -0.39122223133061    3.62847940102721
H           0.48249613232751   -0.72086681267235    2.54734706324446
O           1.17122608872010    1.36563382671696   -2.43281089039849
H           0.38155503840468    1.83967536040147   -2.10414952772435
H           1.75802881683411    1.26573786554246   -1.67464503951671
O          -0.20393337767056    1.73037202580553    0.96918701875407
H          -0.66099796891550    1.79616852417159    0.09294144754994
H          -0.74343938439423    1.13420251153908    1.49659533686638
H           1.21593756636726    1.09244090112569    0.56493164123521
N           0.54774938158914   -1.58930111026179   -0.22339119807813
H           1.24098523371217   -0.77910151250736   -0.03637616092004
H          -0.01447317774268   -1.31194673357324   -1.07258297553191
H           1.03048688099473   -2.46957837962682   -0.36979396703529
H          -0.08910547924582   -1.63562594485327    0.58921581467976
