    26
        -50.46018879  Gyration_radius:  2.39264714587 Dipole_moment: 4.758
 S          -0.89267309201402   -1.30994500186226   -0.44827397560933
O          -2.14475317926471   -0.82172219536433   -0.99135367534325
O          -0.72183475346878   -2.72564450257715   -0.33403609956970
O           0.24056982316107   -0.81475378619384   -1.48889878989092
O          -0.55023804806685   -0.62361255852600    0.80385507313222
H           0.48375359435975   -1.69948892474942    1.51537679713363
H          -0.22729047347922   -0.38617501968179   -2.25336759520291
O           1.29241246995795   -2.25093124126812    1.61827459860911
H           1.07820277338521   -3.03320395231178    1.09890780582868
O           1.11655215276476    1.98191264635494    0.66562304198456
H           0.61954977791598    1.95363054749710    1.50369635936425
O          -0.87095604071319    1.44145618386630    2.42982605692548
H          -0.87132094073424    0.64974853538518    1.85213197735420
H          -0.93363444273847    1.11385526602438    3.32762687045627
O          -1.30897549202451    0.36437027241489   -3.21380991670695
H          -1.98493681270153   -0.11299871759990   -2.70062179722630
H          -1.31897447667729    1.26522486234998   -2.87023959348199
O          -1.29404564287506    1.68656228275581   -0.64174021571008
H          -1.70445892855291    2.08184675289930    0.13284700051826
H           0.40420137139474    1.94035934815111   -0.00309513469987
H          -1.61975122791919    0.76372936060375   -0.66276551127607
N           2.28277672319644   -0.29440252011100    0.13616392291545
H           2.10002692726591   -1.06105119343204    0.84289358315163
H           1.67823499782988   -0.53348739024970   -0.67514120510522
H           1.88600823202882    0.64982088345377    0.47707748851035
H           3.26155469794900   -0.22509993784374   -0.12095708605267
