    26
        -50.44588912  Gyration_radius:  2.56035346588 Dipole_moment: 7.254
 S          -2.32705520640940    0.54746995304854    0.56945581637554
O          -1.69014074789905   -0.58031943196752    1.20522625598706
O          -3.35918413859683    1.19461045224516    1.28725806020314
O          -1.18121940354577    1.55178661985820    0.18916208175738
O          -2.85065016109571    0.14105944213219   -0.82100395813787
H          -2.15180943375368   -0.30865728816548   -1.38994391486555
H          -0.67942775717238    1.62151388461594    1.07423568916708
O          -1.09366214166302   -0.83456328109838   -2.44277210403789
H          -1.49179866477365   -0.69572944266105   -3.30453297077052
O           2.29553185356323   -0.40209277542478   -0.41829438928407
H           3.03472216053419   -0.88534789438802   -0.78946199188972
O          -0.09676146244245    1.30107211647832    2.44281973127328
H          -0.56012490188142    0.46152909942662    2.55484607250006
H           0.86553421765155    1.08421749466849    2.37709828822064
O           2.47722297595496    0.74480937335907    2.01493297751983
H           2.99110131515399    1.54845127832662    1.92152978901371
H           2.45541469080868    0.31764104306036    1.13289863553771
O           0.57846953315605    1.09014911516327   -1.92065869913738
H           0.01761634566117    1.51057731780451   -1.25212403334854
H           1.30327061892708    0.66177847999257   -1.42594318732337
H          -0.39842588222295   -0.12078746706056   -2.33558402328087
N           0.32026851710206   -2.07541625409226   -0.11924926879307
H           1.54905554434698   -1.08193598502421   -0.26979125166385
H          -0.37374788226036   -1.59617283999559    0.45803423280259
H          -0.11111972160879   -2.20760896371256   -1.02767554252084
H           0.47691972248982   -2.98803404655585    0.28953773467497
