    26
        -50.46626557  Gyration_radius:  2.38226486799 Dipole_moment: 3.612
 S           0.23813868861496    0.39435529530290    1.45694409820577
O           1.01831410498028    0.93447783044443    0.33487328034470
O          -0.36180152268702   -0.97071431881196    0.92844506608457
O           1.12094595083103    0.00131646996287    2.54286650226329
O          -0.87651129169467    1.24492462845270    1.81077798048224
O           0.46642414935064   -0.40477170453158   -1.90953906899129
H          -0.46388751935982   -0.21319496250256   -2.09082546240677
H           0.68445611220540    0.15373311343136   -1.13701064214052
O          -2.08216529420424    0.85108488933145   -1.82324476519869
H          -2.67078289781162    1.21905134902758   -2.48348388867600
H          -1.66399131709127    1.62340027673603   -1.35691809635339
O           1.22475798216499   -2.60768817720186   -0.63139432449688
H           0.96369262594757   -1.91271590115945   -1.28607074960703
H           0.46145799838567   -2.66990289296922   -0.04552414142075
O          -0.92520839191723    2.73799515042027   -0.39181013505372
H           0.01584778527751    2.64262511714411   -0.57386396022038
H          -1.01861009894429    2.35217303500730    0.50305050554385
O          -2.79074044361492   -0.24850936548070    0.55611612412919
H          -2.70294696645620    0.09092450523788   -0.35752008716497
H          -1.34477298808779   -0.83314421011236    0.77910939657758
H          -2.58156769284809    0.49058146349432    1.14568118687403
N           2.70461724809230   -1.00080361441619    0.80935645445252
H           2.20039618675279   -1.77660198158031    0.25397973338622
H           2.55071990151013   -0.12437990926474    0.28495305445014
H           2.14821702086580   -0.77313439597305    1.70267118874777
H           3.68500065978561   -1.20108167005593    0.97838073018412
