    26
        -50.46539898  Gyration_radius:  2.43468121314 Dipole_moment: 6.435
 S          -1.51253279381588    0.15996684558410   -1.78719609137852
O          -1.81981972376973    0.98657542246994   -0.62164606005810
O          -2.09757181651187   -1.14316535672934   -1.76825318284742
O          -2.10400522141851    0.95081456891171   -3.02773852773034
O          -0.05812015763434    0.11283975441037   -2.00036813445989
H           0.15075445350411   -1.32591071581796   -1.28321020084884
H          -1.85905317952423    1.85418944634758   -2.85129091708601
O           0.25962521578420   -2.13219009906098   -0.72130292107958
H          -0.29863580657772   -2.78896601695505   -1.14358497939114
O           0.27551766884404    0.09291054217795    2.66518882380566
H           0.06118233496982   -0.05378665972690    3.58670359148621
O           0.01602148864546    2.29575286022974    0.83608375547667
H           0.06419055585986    1.75312634327788    1.63433733881040
H          -0.72367509322594    1.92533872587086    0.31284335218159
O           1.89528993573958    1.29837907837465   -0.70022571221756
H           1.26483313041555    0.92672944982694   -1.35672205583794
H           1.31758483272612    1.87036267573498   -0.13095410975241
O          -1.52032168445631   -0.96300685476431    1.13886678523724
H          -1.83369483817284   -0.24799174503416    0.54884957867223
H          -1.09268206122980   -1.59461720560266    0.54100801801040
H          -0.47843482568542   -0.30587325816080    2.13303355800898
N           2.04134828113909   -0.75851396209378    0.81705271775229
H           1.50264522727430   -0.47618842627439    1.66368216537189
H           1.50038420171158   -1.47544392947831    0.30714971966380
H           2.08248577925060    0.13513963228669    0.15323553198572
H           2.96668406615600   -1.09647111579639    1.05445798622527
