    26
        -50.44625374  Gyration_radius:  2.48795493821 Dipole_moment: 5.295
 S           2.13120544616243    0.68919655517577    0.99884910535927
O           0.97111389338475    1.37380132333371    1.52171769324676
O           3.27352984672354    0.63274881491182    1.83131760266864
O           1.65725245441550   -0.74835047644592    0.60036042103756
O           2.52044747508100    1.28395155729555   -0.36711571233678
H           1.79165244499037    1.08476053474811   -1.03222769946971
H           0.76267045749722   -0.86562853982683    1.04696511952809
O           0.72507640816394    0.70802574546151   -2.11080640992254
H           1.19198921071529    0.50553170783926   -2.92383802476171
O          -2.46049472947590   -0.06304759283456    0.10702371191663
H          -3.38615752464002    0.09878711621608    0.29026580641274
O          -0.57324243724522   -0.79878057313198    1.86047472823778
H          -1.32836649478551   -0.62667024779751    1.25207099787762
H          -0.29757987432687    0.07565368929522    2.17476263016362
O           0.21128984888429   -3.17133183141551    0.25507120533766
H          -0.20925425308370   -2.85885950380028    1.06284471117511
H           1.13574256918372   -2.91320003273425    0.31306234884052
O          -0.73552009542845   -1.38501178495937   -1.60258759386360
H           0.19250802003287   -0.11356248484970   -1.89277354637758
H          -0.37543507103440   -2.10666353978863   -1.05234205535026
H          -1.49284217802533   -1.03209336501361   -1.11078558050397
N          -1.12313794914397    2.16136788159500   -0.25958730327808
H          -2.02473592039733    0.83445644078442   -0.06298453289134
H          -1.49918272848994    3.09765401558914   -0.18289545778215
H          -0.39164050563444    2.05876644873681    0.44484709557154
H          -0.66688834352909    2.07849814161200   -1.16168924082935
