    26
        -50.46058929  Gyration_radius:  2.64053253613 Dipole_moment: 5.062
 S          -2.58482240456291    0.18290871546890    0.74686290521938
O          -3.03723137898821   -1.17022378141604    0.92923528909676
O          -1.67749830420545    0.67819586081613    1.75872383450767
O          -2.02961540209519    0.39934783405443   -0.59947792752188
O          -3.88389830738294    1.10630850399057    0.82818040686662
H          -4.58196364918529    0.51153797290858    0.57055696010584
H          -1.13054555135637   -0.89631828271850   -0.26869194875341
O          -0.53973373501457   -1.66785380398719   -0.09690521413685
H          -1.12649077779400   -2.28363039067449    0.35271201117419
O           3.41160651417522   -0.84777926204840   -0.54167188396909
H           3.92456137361429   -1.64719572993245   -0.41873985382031
O           0.13156224398461    1.70992377427464   -1.30163595414239
H           0.46403037516913    1.93364945254469   -0.41186758133990
H          -0.77508903194511    1.36351916668933   -1.13058450385543
O           0.58430689240863    1.83708547199616    1.36672961430409
H          -0.30752639143193    1.41924898147289    1.52424894680275
H           0.66705228182611    2.52677838111753    2.02639671374963
O           1.64177545005156   -0.69020819469520    1.37361371328750
H           1.38538521809430    0.24078068831535    1.49755284359530
H           0.84621375614915   -1.12245703854441    1.02142894382378
H           2.85631866048607   -0.74657288291192    0.28033179612442
N           1.16229866078839   -0.58345010133373   -1.92726314728667
H           2.13272974365724   -0.68346116956648   -1.53096151056247
H           0.53395845717173   -1.21716860997187   -1.40481860799305
H           0.79626275125145    0.42588445140308   -1.72248835321552
H           1.13635254513389   -0.77884999724207   -2.92146748221184
