    26
        -50.45346876  Gyration_radius:  2.7446278018 Dipole_moment: 6.026
 S          -0.82441458968068    2.66889057099727    0.96094808185608
O           0.59497690989551    2.73782027694510    0.59678094846514
O          -1.71639000414347    3.10424141939329   -0.07064986904676
O          -1.14316562185889    1.31996024849558    1.45365777843004
O          -0.99081459632755    3.64467144247836    2.20188463922060
H          -0.26311420038008    3.41611001988808    2.77375582555666
H          -1.86246103805476    0.72911379698165    0.04286038370415
O          -1.98511176076679    0.54269659478493   -0.91595062993124
H          -2.34269760952296    1.37556051104548   -1.24346246229764
O           0.22962521847887   -0.97223871450519    1.38013443735817
H          -0.27684847275431   -0.18446454423238    1.66206121554458
O           1.23729925963475   -1.90834071533414   -1.96289981472503
H           1.47343554697974   -2.58469452392278   -2.59837198741194
H           1.74127700261044   -2.10782907781047   -1.14443588998751
O           2.38197704030624   -2.36026548828107    0.44623268483129
H           1.75030849514685   -1.85762175651013    0.99000499552318
H           2.40830264401945   -3.24351038943812    0.81758902308781
O          -1.18906600719491   -2.13493289406061   -0.56557719082039
H          -0.40961012646932   -1.52611452784735    0.87458763520843
H          -1.76738232639593   -1.39928723774853   -0.80335208788808
H          -0.45623507865944   -2.11761346064695   -1.20399661776527
N           0.71105744743385    0.57189399273225   -0.77105478613065
H           0.82974180791640    1.53551671270101   -0.31694793072739
H           1.38381361615568    0.33658239526163   -1.49564219912627
H           0.75544047431740   -0.11883756909209    0.02019978354076
H          -0.26994404065600    0.53269289773720   -1.12835596650955
