    26
        -50.45534385  Gyration_radius:  2.49626234962 Dipole_moment: 6.510
 S           1.48020583431148   -0.90544503196458   -0.86909918649946
O           0.27657754398513   -1.74999432641874   -0.80717829038866
O           2.55843845074694   -1.46529286598548   -1.60247369616364
O           1.09001173990610    0.45914671137441   -1.24134116625011
O           1.93391463483746   -0.77669353398353    0.66829456583297
H           1.62695049738686    0.09655174883442    0.98130152755582
H          -0.37418627923247    0.29856235179241   -2.07367017922596
O          -1.23102205760086   -0.03243778670618   -2.41572689612878
H          -1.11739071789449   -0.98824224864372   -2.40929179244994
O           0.84809917393382    1.50435967480506    1.63532103580800
H           1.29832254955454    1.79927305194670    2.42832546654628
O          -3.11495089028969    0.46058404573322   -0.61051361595045
H          -2.47583656039854    0.39304405880548   -1.36411229497689
H          -3.93567920131979    0.07529540074098   -0.91888152244893
O           0.19439690750769   -2.42193140936061    2.16509715430575
H           0.96357837044022   -1.97725850737258    1.77494692448786
H           0.07414905182488   -3.21696481945722    1.64140702982521
O           1.58170488509293    2.89499012232830   -0.45588490925231
H           1.09911918107804    2.13683324969994    0.91032663816462
H           1.55665053385877    2.02134454050735   -0.90837455420115
H           0.97255440650291    3.45588110118183   -0.93979813345304
N          -1.08494868942568   -0.39692915663711    0.89966779721867
H          -2.01480616433085   -0.10294060639149    0.53029901545831
H          -0.53322024076861    0.42708645520921    1.16983784091984
H          -1.11549321864407   -1.05276345685567    1.69036433326684
H          -0.55713976105003   -0.93605873323268    0.12115689802816
