    26
        -50.46171695  Gyration_radius:  2.48635736017 Dipole_moment: 7.122
 S           0.65033897597200    1.94372672804424   -0.87923080196068
O          -0.80055493995075    1.80683866968633   -0.74351186621175
O           1.24282933437777    2.90711882265096   -0.01227139065096
O           1.27464376327208    0.60950883953741   -0.72492358685673
O           0.91958532250644    2.34337413697492   -2.37863945431339
H           0.51565448334948    1.61424068196086   -2.86917328829809
H           1.49393653984229    0.67198351133080    0.88802353992459
O           1.46525339541386    0.64555876720275    1.87321964954031
H           1.78727291730881    1.51057174990844    2.13833206297496
O          -2.28215086843807   -1.39330366504135    0.44447644003717
H          -2.76391538487512   -1.92142884870168    1.08155686728383
O           1.40119028638780   -2.08337541557171    1.87256301463639
H           1.61489302028413   -1.13554594586840    1.95692709960715
H           0.88177387118310   -2.30538046121797    2.64750757134983
O          -0.79328884765171    0.19353983585917   -2.77676966248884
H          -0.96308481550445    0.72178194599472   -1.96508870985859
H          -1.58548950473162    0.27415140227442   -3.31159557769930
O          -1.31103338277097    0.73617329105668    1.62831890095630
H          -0.39083440161163    0.66523355479423    1.93159480436535
H          -1.25598315665240    1.28038811355832    0.81672579972691
H          -2.02259509482905   -0.55511248906463    0.91416577231910
N           0.17946544394757   -1.73127498745260   -0.52012283589628
H           0.69969994157707   -2.06526778956852    0.32118460408807
H           0.55770377047244   -0.75297977361875   -0.72686538345288
H           0.32377665781490   -2.32214336627240   -1.33113213756434
H          -0.83908731669793   -1.65837730845857   -0.27527143156359
