    26
        -50.45817692  Gyration_radius:  2.50778453728 Dipole_moment: 6.752
 S           0.21969743041764   -0.08610512218999    1.94777358920259
O          -0.38974808803594   -1.37315957862391    1.55885228547462
O           0.59544870892154    0.01914322097523    3.31163812848965
O           1.29328721952827    0.22565871826052    0.98879684035327
O          -0.90010989423182    1.00435894546986    1.68609026192716
H          -1.21011839118617    0.92473442379061    0.76113158065913
H           1.73178137090148   -0.01886800731235   -0.51818310114836
O          -1.70392836653080    0.99019669601092   -0.88597988582271
H          -2.46380053847309    1.56675615554117   -0.97477203927613
O           1.87162114971172   -0.19926692093014   -1.48655523845071
H           2.80238187656478   -0.40325031931230   -1.58429916124095
O           1.17943086161859    2.85183621326903    0.85601456915711
H           1.35769910136684    1.90054374693300    1.01447534553917
H           0.51234561469323    3.09206677897749    1.50235519606389
O          -1.25426883473399   -3.72547777840660    0.30042490669060
H          -1.46611918430361   -4.53075283756518    0.77389336403765
H          -1.01339062342999   -3.07052476508456    0.97317972866789
O           0.42014068352143    2.22573143077312   -1.63610093324519
H           1.04394580445529    1.50679112789954   -1.81540265620427
H          -0.90934210838389    1.51388373669717   -1.23164158990502
H           0.72857008641129    2.62785025225067   -0.79170927071472
N          -0.48989630988502   -1.41905633567509   -0.99090198303488
H          -0.81276639076112   -2.36152516242459   -1.21014374434711
H          -0.38686319303049   -1.38474575969987    0.09767539564328
H           0.42375641777505   -1.18234945971538   -1.41532597075456
H          -1.17975440293460   -0.69446939996181   -1.23128560781398
