    26
        -50.44693981  Gyration_radius:  2.49584307595 Dipole_moment: 6.125
 S          -0.77477689857847    1.26454382390204   -1.93129403769701
O          -1.24569187287758    1.83896244861942   -0.68912209568593
O          -1.02551200075291    2.00300774228706   -3.11081285911670
O           0.73435648208286    0.94726630815493   -1.75319040743044
O          -1.39599354595491   -0.14631262485201   -2.09011988388810
H          -0.94782414958761   -0.81605266711488   -1.49273183143478
H           1.02287765371290    1.44263192655071   -0.90150939882577
O          -0.21251656677149   -1.97142680078280   -0.69907830146192
H          -0.19800963945401   -2.74747430147651   -1.26169616802524
O           1.26099296292692    0.14221020388132    2.19239775617924
H           1.34427100562571    0.36572030481873    3.12026851767776
O          -2.87139422277610    0.39825039422534    0.85318492435017
H          -3.52449200471496    0.04052330038439    0.24985938753264
H          -2.32570753999562    1.01467291425862    0.32679895653647
O           1.14934187395508    2.14140155418669    0.42216423403951
H           1.23262635654853    1.44447284391639    1.11535093293505
H           0.21364348297505    2.39418013099395    0.40397460389965
O          -0.95535466137850   -1.20694837741720    1.87268579422902
H          -0.78756309365728   -1.68455182010690    1.04814969260681
H          -1.70608407936601   -0.61274790623899    1.67047676111966
H           0.40759042641816   -0.37073335331711    2.10870399292431
N           2.23807277149682   -1.18393198586012   -0.27926617226911
H           2.38744694750702   -0.45440278502205   -0.96609285617186
H           3.03272370560738   -1.80978339650601   -0.29031149995569
H           2.18953599258390   -0.74514844438041    0.63630710045139
H           0.75744062439876   -1.68832943309854   -0.55509716248714
