    26
        -50.46286140  Gyration_radius:  2.61381948187 Dipole_moment: 3.454
 S          -2.25601634652041    0.67424291258434   -0.95879938318209
O          -1.08804744113470   -0.12512718943713   -1.38670122475054
O          -2.84217715510528    0.12633039586966    0.22777184636743
O          -1.91854289511952    2.08578458335100   -0.90896872675820
O          -3.31519325316928    0.53182561915817   -2.13621338251067
H          -2.98723439083900    1.14069357091932   -2.79118581273795
H          -0.67809683872069    2.35895900021651    0.04738692976652
O           0.13106470436153    2.50970700219215    0.60615538310789
H           0.00116007733701    3.36347171350235    1.02195238998997
O           2.62314880128059   -0.70261304964633    0.36646490374677
H           3.56490704187190   -0.57268377337728    0.25215030630946
O           0.72262988141131    0.32501612653611    2.11621349357406
H           1.55501913729874    0.02288664054012    1.71696225042841
H           0.49703117490186    1.16299309592454    1.66542582143156
O           1.30223855117120   -3.07663352973941    0.20782925450396
H           1.31382144621571   -3.28620363912106   -0.72780252976742
H           1.88447829692662   -2.29735052952140    0.32116089408911
O           1.37401450409162    0.88562610872871   -1.27578269716355
H           2.17422998728827   -0.12680447870432   -0.31968643046474
H           0.49636989986858    0.49338847695810   -1.46583129725569
H           1.17202790930504    1.65926906209260   -0.72950182405330
N          -0.75441484245377   -1.45840872644490    0.84301661408939
H          -1.68039805467309   -1.66124531117269    1.20953216620968
H          -0.89424919213837   -0.98525891221402   -0.09374278155812
H          -0.25749148874084   -0.75721733167232    1.47096543854639
H          -0.14027951469835   -2.29064784749521    0.72122838800770
