    26
        -50.46286140  Gyration_radius:  2.61357194161 Dipole_moment: 3.449
 S           1.81029548128173   -1.26677036541894    1.25695823717429
O           1.66236392329703    0.04723822004645    0.59537800906977
O           0.86691327709660   -1.40914945353941    2.32537547795849
O           1.82470353597620   -2.33525628579142    0.27360553555833
O           3.26792792421855   -1.25415405391209    1.89227700918533
H           3.82750792689305   -1.43376605846666    1.14269708949846
H           0.51904183515876   -2.31400257809448   -0.63341903464728
O          -1.40781585475949    1.62612865939239   -1.69892189524720
H          -1.63817262598620    1.95636401038461   -2.56766487107171
O          -0.27667904490204   -2.25745395248616   -1.22779766059469
H          -0.49913074087778   -3.16364561096460   -1.44688437152316
O          -2.17056685015044   -0.59189945832797   -0.20748430899502
H          -2.15343634285642    0.14513416985120   -0.84001060037931
H          -1.56239933110396   -1.26837272776619   -0.56645412278370
O          -1.07729174702292    3.11926105786944    0.55261611017954
H          -0.24833364907079    3.57829532328860    0.40576702308279
H          -1.29774523249866    2.67577527555878   -0.29223852053203
O           0.77550685150688    0.22312871702542   -1.91013323028592
H           1.22558416822494    0.23235104751071   -1.03970143844687
H           0.45086551157019   -0.68507612563302   -1.99676813068593
H          -0.53436472611574    1.14636866524866   -1.80256037615544
N          -0.68505669310322    0.66178565415330    1.58209119980722
H           0.28956107290016    0.47731825475058    1.21211659434259
H          -0.70331315026432    0.32364825222663    2.54032126891823
H          -0.91075271146998    1.67229382886463    1.47060075204663
H          -1.35521281815935    0.09445554498475    0.98023429453002
