    26
        -50.46048592  Gyration_radius:  2.45029309363 Dipole_moment: 2.423
 S           0.04744981454409    0.35814573475768    1.19651389451315
O          -0.18656518909390    1.75148119554066    0.84984356654957
O          -0.03428428110877    0.18884818415253    2.73675062252615
O          -0.97103389378613   -0.50191241586797    0.59269090044917
O           1.38695314998856   -0.07991529605942    0.81124007728404
O          -0.19701400557423   -2.00733417579325   -1.38701588938277
H          -0.57366804184620   -1.54060484337710   -0.59598758658681
H           0.68397587142300   -2.32664164558266   -1.09195093398338
O           2.44118415975712    0.53463684334805   -1.50153741121813
H           2.09504925823654    0.48733944911766   -0.57823398055992
H           3.04726131099205   -0.20792631268198   -1.58160467010573
O           2.20073758828510   -2.34436157537008   -0.25083931732897
H           2.36493429059239   -3.02322830848174    0.40467823421027
H           1.96276093580451   -1.53062187102145    0.24937763082057
O          -1.42613371013489    1.34792999147082   -1.38690671743222
H          -0.91936230424616    1.68877564003736   -0.60675612468611
H          -1.92146751069387    0.60714961964363   -1.01598557984147
O           0.27341096018777    0.02963956207044   -2.72483656094947
H          -0.42366077935586    0.66699235223700   -2.30039450879647
H           1.18748258260616    0.30422336198677   -2.33816323033772
H           0.05633092310421   -0.92239217119212   -2.25299825590482
N          -2.36611957208966    1.35481416750870    2.60512075990493
H          -2.92568860625205    1.94646689679705    3.20563295345367
H          -1.89014698553902    1.93195290431769    1.91713311451172
H          -0.93283120086870    0.56707642422776    2.93259135090076
H          -2.97955475494597    0.71946631820241    2.11163764198735
