    26
        -50.46053114  Gyration_radius:  2.55044843859 Dipole_moment: 2.031
 S          -1.19551834906656    1.74313099899317   -0.80743941528936
O          -0.64217440530131    1.89605420263079   -2.12633664171137
O          -1.46605899206009    0.34249502504587   -0.47786291773317
O          -0.39835412800375    2.38130554451931    0.22970019582231
O          -2.61857242091901    2.45351421171441   -0.80518250516847
H          -2.50029386738968    3.18869138968669   -1.39938277963112
H           0.06547238567488    1.28160602129270    1.46563141022149
O           1.49421638437983   -2.84113653507220   -0.93105695343051
H           2.39830174538996   -3.12340521087050   -0.78587976582261
O           0.42304052976513    0.59875936709018    2.06734146376164
H          -0.33405267978430    0.29677469594350    2.57759116296913
O          -2.00660935428642   -1.10210137181721    1.70295994377331
H          -2.90443170274916   -1.42401484043268    1.61708104963062
H          -1.84934470448191   -0.53310119003451    0.92172769920398
O           2.06743689915306    1.44355403456960   -0.18142642959139
H           2.18109727534211    1.13167453690113    0.72336877594573
H           1.27783001872860    2.02057612566988   -0.14134085955214
O           0.56743379673614   -2.05909688972113    1.39577588261315
H          -0.39569653415730   -2.07815593413662    1.50896422452700
H           1.11329788722550   -2.66650730518637   -0.03029678560324
H           0.78914341358119   -1.13376993966267    1.60311423387448
N           0.79902928252879   -0.38324445764852   -1.64407678001098
H           0.72858611200180   -0.08635390957957   -2.61414044641210
H           1.43450563160512    0.28894988460835   -1.12801108895989
H          -0.15125396741727   -0.25615960910320   -1.21389003536626
H           1.12296975344908   -1.38003885544301   -1.52693265810107
