    26
        -50.44696862  Gyration_radius:  2.48136622461 Dipole_moment: 6.276
 S          -1.43408452004277    0.65074088650086   -1.82197444023498
O          -1.11926013631511    1.81724386519239   -1.02595864272172
O          -2.14804712753859    0.87073191471727   -3.02262420182944
O          -0.10948405080577   -0.11907745334492   -2.06741374163188
O          -2.23810401869654   -0.34182795996874   -0.94098313316311
H          -1.63344851761647   -0.90146492544963   -0.36643670651691
H           0.64082755181755    0.51609163129438   -1.76977843153769
O          -0.76410493902061   -1.90892138879736    0.48064843186656
H          -1.12684164520232   -2.78649858003600    0.34957612983912
O           2.14475292738606    0.55465198110912    1.22672595305623
H           2.67063382222758    1.08485131160706    1.82687544512485
O          -2.10227413915075    1.58529818165374    1.44134540829316
H          -1.75333213363660    1.80486415387013    0.55610643212269
H          -2.93438291940668    1.13367768558869    1.28879513313468
O           1.51989990111340    1.57048788718394   -1.16354072957814
H           1.81442771949563    1.23351359199670   -0.28441053651165
H           0.75421231360366    2.13988465859293   -0.99117793563284
O          -0.12998780005928    0.01642383045782    2.39703400063047
H           1.28660495823570    0.37004980700913    1.70350078833460
H          -0.41885990016040   -0.78790795091112    1.94515585083173
H          -0.81789261545212    0.68341297915800    2.19214599687010
N           1.68640306191966   -1.87683900505733   -0.41896112931508
H           1.61161084666949   -1.57316432263073   -1.38225662930493
H           2.12174842898032   -1.12738151946485    0.11188450777953
H           0.18790842789488   -1.92195791934317    0.11461213451652
H           2.29107451378338   -2.68688336088701   -0.37888995441219
