    26
        -50.45745695  Gyration_radius:  2.39284727792 Dipole_moment: 7.911
 S          -0.74583100888218    0.28321091226370   -1.74087199889719
O          -0.96697537567511    0.31689489305324   -0.28794594306113
O          -0.91724709033482    1.56132446071629   -2.35894351530375
O           0.82109176985838   -0.11442456673824   -1.85573329111595
O          -1.42192295710470   -0.84612986703170   -2.34087077827420
H          -1.80975217842703   -1.83451142483065   -1.16336471373916
H           1.33078080843013    0.57611556009158   -1.33469418232803
O          -1.83688487992700   -2.55199303185381   -0.46831465351238
H          -2.11495543246934   -3.34508561399897   -0.93073596034118
O           1.35364698487748   -0.27161309948430    2.03108518057359
H           1.69469566479317   -0.48309218121680    2.90108079450313
O          -0.31130437037563    2.84752389247807    0.03008128833429
H          -0.67942405143935    1.95460638595037   -0.15089339287991
H          -0.47783476812507    3.32555443782403   -0.78660209690068
O           1.97548072803653    1.46551696572287   -0.16730923669822
H           1.27399338981842    2.14473880767868   -0.05420406447950
H           1.94390660774242    0.92399337962303    0.63450237584469
O          -0.90189426070248    0.99754293105289    2.27481504398646
H           0.49865131137711    0.23197216311581    2.18039781865211
H          -1.21679355660783    0.62702670243162    1.42959136193971
H          -0.78435206101022    1.93615710995802    2.09180199033595
N           0.67332141419157   -1.97343865362173    0.02745041121580
H           0.79183819547381   -1.32750876578963   -0.79845167358572
H          -0.34842797058069   -2.27678196197667   -0.00686396338283
H           1.30264776823499   -2.76790615022227   -0.03484502412264
H           0.87354532883371   -1.39969329519549    0.87983824323579
