    26
        -50.46587749  Gyration_radius:  2.43821581708 Dipole_moment: 1.745
 S           1.61922227237294   -0.41500877077619    0.42492068523872
O           2.26092086627600   -0.29747323034362   -0.86864274558224
O           1.06329498797783    0.81867235595210    0.92229488564612
O           0.65289085182036   -1.51071156657276    0.46165926870416
O           2.76377925336028   -0.81680750401949    1.46101083473817
H           3.30793520104979   -1.43150401517288    0.97865368797273
H          -0.75265838662461   -1.03880428166533    1.27749588396830
O          -1.45738600143334   -0.51468917074930    1.71326640711759
H          -1.02907301964350   -0.17628235477335    2.52293461084737
O          -2.23922571306267   -0.20186611514803   -2.24348342174518
H          -2.90444046272304   -0.88437958944713   -2.14069997517575
O           0.63983158056537    1.65099504782776   -1.71738259343633
H           0.33353812578646    1.27706396722904   -2.54781988657887
H           1.35146956956475    1.06820645415148   -1.39198540383235
O           0.41152065114314    0.41039396667102    3.45312252857017
H           0.74424140383755    0.70663362493024    2.58122963194992
H           1.08289435506767   -0.18063303364326    3.79772182201539
O           0.08496767666033   -1.48898878425065   -2.11044642992196
H           0.95278193126318   -1.14147824197422   -2.34199947705013
H           0.17330146142892   -1.67260813959331   -1.15305893181704
H          -1.37622357188909   -0.67896509945693   -2.29047296690133
N          -1.55120647368961    1.32540352175658   -0.15043566497784
H          -1.51994051513174    0.64483532212170    0.68452093837433
H          -1.98544934876107    0.82252679043387   -0.96302065368323
H          -2.05394194592898    2.17420914768841    0.08398329626253
H          -0.57304476931219    1.55125969884951   -0.44336632070071
