    26
        -50.44557920  Gyration_radius:  2.52576715764 Dipole_moment: 7.118
 S           1.40333450466913    1.02127722834481    1.73492022089794
O           0.69038594884146    1.74048509714975    0.70610602459023
O           1.63580444096792    1.72367549176833    2.94202286396539
O           0.61159888815298   -0.30670849475959    1.99132774711226
O           2.73069571775976    0.48534051448858    1.17357995846250
H           2.55473337320581   -0.11510039888134    0.38972331328883
H          -0.30897889626347    0.03954760748331    2.20714668548787
O           0.52010075905881   -0.39615550444160   -2.62838885863615
H           0.77629924704237   -0.07886496052951   -3.49537239566433
O          -2.65780233151554   -0.03774313212994   -0.04435841987314
H          -3.53048110063962   -0.43082865976578   -0.07762246579736
O          -1.58266833650706    0.97337266282840    2.19818711212978
H          -1.14657561717815    1.78740665347150    1.92518979984735
H          -2.08910450790348    0.66042700524332    1.41432055668179
O           2.37833460220658   -1.05328240259555   -0.86484514022718
H           3.21526012670015   -1.07236723734864   -1.33271298390301
H           1.68919403483081   -0.77705546411651   -1.52078455430432
O          -0.84489407122745    1.50494761316164   -1.49107583968782
H          -0.02780499370753    0.33785039634775   -2.22321363236429
H          -1.62827727314728    1.10053375844397   -1.08779208368450
H          -0.25806637643697    1.72650491725881   -0.74555916246745
N          -0.76987147721701   -1.86981046068359   -0.24013763995640
H          -0.09413621012327   -1.57618586653094    0.45925097381529
H          -0.93627006642080   -2.85974973498896   -0.11211207260940
H          -1.98915937653072   -0.78750871860656   -0.12762662114209
H          -0.34165101865767   -1.74000790050688   -1.15017338590709
