    26
        -50.45719742  Gyration_radius:  2.49329255794 Dipole_moment: 3.862
 S          -1.58114575753291    1.40097419427011   -0.55468595047252
O          -1.43944715300655    1.04175305266725   -1.96433980662398
O          -1.21911993727797    0.29766660091632    0.30109004926741
O          -0.91975085428375    2.64866053634886   -0.22646196539652
O          -3.13553944845822    1.65848063131458   -0.31606805593742
H          -3.28409316203005    2.49206049427991   -0.75224799625043
H           0.54490827977649    2.10506919298777    0.06565096812748
O           0.01636166273128   -2.57646847111663    0.29179369942993
H           0.58759856881446   -3.33810189634750    0.40051411829531
O           1.45884063521224    1.77196345337615    0.25800076997712
H           1.90229075902895    2.48500044012465    0.72188749385041
O          -1.05654092633099   -0.24164581159181    2.89909481196417
H          -1.21811397695389    0.06562611234125    1.98267944258080
H          -1.61931013315748   -1.00979674556770    3.00958933218928
O           2.44389961867968   -0.26806658903167   -1.19383148032778
H           2.19229057977334    0.60786587009462   -0.84259946176359
H           2.62337864352144   -0.79559599999084   -0.40875773072982
O           1.30126445968431   -0.67843728090716    1.63817534865914
H           0.42352070897638   -1.84629627266359    0.82625319705861
H           1.28788908566665    0.17148438101955    1.16561011407118
H           0.61163574124691   -0.56401168217349    2.32059493787813
N           0.01029300839479   -1.10096700124996   -1.94413577977421
H           0.99928094103094   -0.76510844756221   -1.80682238178510
H          -0.08648879614492   -1.62997129460851   -2.80425805590637
H          -0.21242741377366   -1.68954318822199   -1.10511839084907
H          -0.63147512359153   -0.24259424871392   -1.96160721753406
