    26
        -50.45043689  Gyration_radius:  2.52693393172 Dipole_moment: 7.549
 S          -1.09374980180771    2.00198049614764    1.29190565656248
O           0.22094362360707    1.40433548318195    1.17178743746042
O          -1.17808968112782    3.24872147566776    1.95113854553935
O          -1.70248484338766    2.09997467142401   -0.13142607404880
O          -2.02530593667400    0.99012303985369    2.00034551357339
H          -1.86453308702334    0.06908176495781    1.64538878477840
H          -1.11711122003880    1.69958058946896   -0.84312473017488
O          -1.53541494097121   -1.44745556484912    1.25707837795865
H          -1.96356163048664   -1.98655381144458    1.92484473642672
O          -0.38331657643141    1.06614212661961   -2.08241951894551
H          -0.93148453099163    1.23364060849662   -2.85068421026214
O           2.07724506138866    1.20655693544786   -0.79489270046068
H           1.43370073351674    1.32010690097609   -1.50657291587163
H           1.57277166092604    1.40605931510203    0.01259004245148
O           2.33656346860950   -1.40313865947624   -0.50016506837692
H           3.26364614633818   -1.63947459753301   -0.45186012757968
H           2.30994520456125   -0.42082957329255   -0.65561813641780
O           0.94872511342455   -1.10947771642202    1.82693542302392
H           1.48981691470743   -1.34603121992033    1.04690592382680
H           0.84940763389686   -0.14190973610367    1.77593356624482
H          -0.55509051363782   -1.41827130428001    1.50396436487957
N          -0.45155530154986   -1.47181484581570   -1.52512259432280
H          -0.42069461839068    0.05947209840803   -1.89805635207044
H          -1.02525095611987   -1.57373054903279   -0.69349746445132
H          -0.75996880122390   -2.14943289831077   -2.20988207482946
H           0.50484684890482   -1.69765501924189   -1.26549640492157
