    26
        -50.45498080  Gyration_radius:  2.47746144568 Dipole_moment: 8.717
 S           0.71176248868802   -2.15753272560506    0.97006542401802
O           1.90428785731615   -1.48892471753006    0.39800998642803
O           1.00325810081940   -3.05438054350286    2.03228796851050
O          -0.28419841627432   -1.12126214699164    1.31268440830625
O           0.08370434568112   -2.96325596093518   -0.22389646977989
H          -0.08629147315556   -2.28058796044502   -0.89591368997155
H          -0.12144138854105    0.30990771234401    1.91385272038903
O           0.04075679162478    1.25994483048462    2.18804766780810
H          -0.05636909358536    1.27759868491631    3.14066198076381
O          -0.70643861667140   -1.04546316641818   -1.98616209518255
H          -1.12278817941988   -1.49280877868611   -2.72455750906187
O           0.34491529411789    1.40431388295722   -1.94274489405536
H          -0.00556046721039    0.48351736723984   -2.00116608122430
H           0.47740941254516    1.70632201043382   -2.84207805345111
O          -1.60925251647049    2.06314163286895    0.06484304719904
H          -1.11140132128665    1.93953485560182    0.88752633982562
H          -0.96279976800390    2.03221955994205   -0.65225250938739
O          -2.39948592025704   -0.51868705873138   -0.15986645600824
H          -2.36021184833806    0.45676666580223   -0.07010105789143
H          -1.45412110667419   -0.84621526253104   -1.31736746177308
H          -1.78806010250919   -0.85574933206739    0.52791740109732
N           1.91793837992718    1.01625115147462    0.27212200186484
H           1.34981668357602    1.33051551268069    1.07940943285440
H           1.92695122119003   -0.11400650280193    0.32567189397563
H           1.44521951247176    1.27835151974649   -0.60862766488198
H           2.86240015043710    1.38048875975215    0.31163367962785
