    26
        -50.47229165  Gyration_radius:  2.48073446282 Dipole_moment: 2.005
 S          -1.27757637735964    1.65867096653167   -0.89904219997644
O           0.15263311081249    1.62210717713049   -0.61021164560174
O          -1.68392750375856    0.54275709647511   -1.72897738502570
O          -2.06847894411482    1.81489395655778    0.30651991941088
O          -1.53604987659213    2.96880278158800   -1.75283320827224
H          -1.63788745400507    3.62017725893006   -1.06715661656284
H          -1.89544443784344    0.47377097400154    1.16358554539186
O          -1.71409159117125   -0.32203429166421    1.72628715464960
H          -2.54478764189431   -0.53587425081970    2.15400925530323
O           2.16107771186953   -0.00798464711447   -1.35601699240078
H           1.58207807468160    0.75523286872462   -1.16587985320335
O          -0.11679509655986   -2.29690658407516    0.69955701607716
H          -0.74153616692647   -1.66380136534589    1.10116300722850
H           0.76823643664743   -1.99622704266819    0.97481374918654
O           2.23652308250202   -0.97281376131473    1.23084240458974
H           1.72091361645348   -0.17743928419313    1.55153981366522
H           2.96410867348047   -1.08887308177655    1.84204131030656
O           0.72859104251832    1.03718410931701    1.92010760374114
H           0.54343338417095    1.39743906540931    1.02765262778127
H          -0.10423404135447    0.62906527124386    2.19419892458131
H           2.40250313770202   -0.36112716267926   -0.48075709298796
N           0.00936540253328   -1.44489368003044   -1.79191226300630
H           0.95819002217284   -0.96126223766235   -1.77858353043514
H          -0.71491847636132   -0.67399153676143   -1.84420127366306
H          -0.08708274897103   -2.09127993211499   -2.56604133486842
H          -0.10484334866815   -1.92559265769783   -0.85070491591785
