    26
        -50.44395858  Gyration_radius:  2.52878774078 Dipole_moment: 3.452
 S          -2.08613136384546    0.93855400185256   -0.18545209249718
O          -1.72088507450485    1.31927001553072    1.15984222265016
O          -3.18289943295772    1.60966590370017   -0.77304162008556
O          -0.81315907593231    1.09926167271782   -1.06738193006875
O          -2.34888451802136   -0.58599154878417   -0.23269397939957
H          -1.49385880499083   -1.10655343961259   -0.17578005182338
H          -0.03626415556550    1.20777421567592   -0.42752555435664
O          -0.15845460803377   -1.95252079631105   -0.32038633057199
H          -0.39522980541953   -2.85600162490001   -0.53608554478738
O           0.97248932331034    1.42753613301764    0.73385788926994
H           0.33782356297447    1.88692209235590    1.29573411605278
O          -1.33350850024418   -0.52281084102241    3.04123883158482
H          -1.61942319398323   -0.17011312728749    3.88493276192015
H          -1.57666777810919    0.14384255898790    2.36719035903186
O           2.73654605629144    1.18129684853730   -1.43999549711718
H           2.78331599267591    2.04756247713351   -1.84774402401567
H           2.30568305871528    1.30770210920950   -0.58328876734034
O           1.08043358364009   -0.88594048357312    1.88946194427062
H           0.30004072046166   -0.84076968913637    2.47608361647312
H           0.79992990881051   -1.45136034659340    1.15352205312922
H           1.11886575010001    0.53898654391158    1.18897168068065
N           0.91671461161782   -0.86262009308505   -2.41574639095913
H           0.19211297185561   -0.22096583372472   -2.71730824367546
H           1.70335869986337   -0.28957226868038   -2.10803988541351
H           0.30032152380975   -1.55402650884732   -1.14780982454831
H           1.21773054747602   -1.40912798107200   -3.21255572840603
