    26
        -50.46038440  Gyration_radius:  2.56596643994 Dipole_moment: 3.999
 S          -2.09941783193523   -1.07709842137351   -0.33355205635857
O          -1.82095716506410    0.12163596660580   -1.13083510849712
O          -2.06764143692774   -2.29469615861425   -1.07375353053780
O          -1.20398946300639   -1.10311031139176    0.84013869626919
O          -3.55586164007262   -0.87846465942087    0.25189067212566
H          -3.54842337972336   -0.05233778992207    0.73320778152513
H          -0.03878199420122   -2.11267713016905    0.05556912194101
O           0.67356280078352   -2.43136473648410   -0.53224083820084
H           0.21348933759011   -3.00743316129627   -1.14930480798608
O           1.24056177146986    1.55124611867885    0.99528574479862
H           0.30863600363450    1.78982701525721    1.18361739347529
O          -1.46818165131975    1.51446749264111    1.15194998194565
H          -1.71018314184948    1.58292505512726    0.21871085132122
H          -1.36654113756431    0.55295368106344    1.28741507775015
O           2.51959155284235    2.31233373961219   -1.47838633105995
H           2.28343240824685    2.33466942073293   -0.54111280371571
H           3.06763681384040    3.08029328776714   -1.64214638468273
O           1.23950894164014   -0.89014273568207    2.11500209707778
H           0.30742110778292   -1.02068417161895    1.88125335404079
H           1.71392593706676   -1.60646538569264    1.68635866131381
H           1.42611679532856    0.79258885719055    1.58615266120019
N           0.79085479628866    0.16375503321684   -1.24648760786614
H          -0.25574722513991    0.22757448715348   -1.37601145485114
H           1.02656960367030    0.69388813026201   -0.35649943223321
H           1.01135277720808   -0.84733376177389   -1.12324919123674
H           1.31306542941181    0.60365012809553   -2.00297254755957
