    26
        -50.45514048  Gyration_radius:  2.75138017319 Dipole_moment: 5.668
 S          -0.38008848130592    1.08980101964865    2.66200744879095
O          -1.34296923784031    1.79037046726584    1.80272634672490
O          -0.42123502282460   -0.33995219843134    2.48933483299225
O           0.95195454976266    1.65990776279927    2.51289784505346
O          -0.83213104229140    1.39501164396683    4.15217092092407
H          -0.75986007859476    2.34366974401809    4.19793602871709
H           1.59089267805207    1.42055463926899    1.09266094664186
O          -0.53333294277627   -1.71616491631248    0.25752365238381
H          -0.53841039685207   -1.39705921576801    1.18602596994985
O           1.90112977066926    1.33577160091864    0.14656880479690
H           2.55100263764680    2.02946160537066    0.02555390167702
O          -1.67795518444897   -2.15399795873543   -2.15334440260440
H          -1.44430399608586   -2.12297778604270   -1.20685908177471
H          -1.64773170032591   -3.07853387054650   -2.40348729583412
O           0.20603608934729   -0.37541773119915   -2.93969052351730
H          -0.51628836410239   -1.00943308043778   -2.74353764659524
H           0.46964762115586   -0.53712146069608   -3.84592060907421
O           1.84493154161939   -1.26742910709712   -0.85408973450997
H           2.11087336629059   -0.46253817991744   -0.38610858053728
H           0.41548585922934   -1.77953963525018   -0.00220369544163
H           1.43065521802272   -0.95703609646216   -1.67742906061377
N          -0.69116324613126    0.83946194512523   -0.49206005556908
H          -1.17061584823769    1.08605766383409   -1.35193236996678
H           0.31164129224459    1.10238102190885   -0.53766213900460
H          -1.08950546628903    1.30865218170712    0.38744684419617
H          -0.73865961592230   -0.20390006893908   -0.31852833780632
