    26
        -50.45043688  Gyration_radius:  2.52682297886 Dipole_moment: 7.548
 S          -1.82214571016103   -1.02580664042581   -1.58094046769260
O          -1.79000407897336   -0.23834733856918   -0.36485566361345
O          -3.07089635741522   -1.16455014408650   -2.22702857471616
O          -0.77039196470927   -0.43574789370304   -2.55645601428270
O          -1.25556935281959   -2.43053315271421   -1.26608905617105
H          -0.45048839233671   -2.35137455540969   -0.67812187519408
H          -0.24524627627747    0.32510254132571   -2.16301181911028
O           0.72795140583908   -2.31095116590868    0.40298047722782
H           0.82268179449112   -3.21134545902357    0.71946143551688
O           0.72497716305933    1.47675380330792   -1.70720455167020
H           1.28890768880011    1.68271006535669   -2.45440457337950
O           0.47504410685015    1.49429041075113    2.28470259296466
H          -0.09316848958634    1.87098942020871    1.56013630254000
H           0.28547638608243    2.01264656776330    3.06765292521517
O          -1.04450875834612    2.28812333926091    0.27833745571317
H          -1.52163111602286    1.45826388757265    0.10515257389382
H          -0.44629069962639    2.37548691156475   -0.47533594898682
O          -0.72830346806728   -0.93606920351865    2.01509793757350
H           0.21108800301945   -1.81406139477677    1.11625411080433
H          -0.25606195213056   -0.11115323813916    2.24684723836484
H          -1.32765741081210   -0.68362453783502    1.29005388076715
N           2.14121610022147    0.30542021669342    0.13087834614090
H           1.31380816454184    1.03040322528451   -0.99804821940204
H           3.15088372936185    0.36664222037594    0.13144484139027
H           1.79998850073082    0.70260488146646    1.00203745641947
H           1.88034099388621   -0.67587277717104    0.12045919013027
