    26
        -50.46048591  Gyration_radius:  2.45019857859 Dipole_moment: 2.418
 S          -0.88846497083758   -0.53305418314357   -0.69880850698918
O          -1.07002328908718   -0.99456017981927    0.67545190254111
O          -2.27528288823463   -0.66255103886521   -1.38273031075726
O          -0.50238006786650    0.87827833498679   -0.72315927160744
O           0.08285456124347   -1.34324317895066   -1.41756488307595
O           2.13475916887222    0.19993713250525   -1.08418390283644
H           1.60402770109916    0.99155752849529   -1.23713777346035
H           1.49015565642474   -0.53424454752243   -1.24839780252362
O           0.36033427235541    1.88634837310728    1.51854283801240
H          -0.24639632242983    1.49615131207416    2.18552730952954
H          -0.02786071247438    1.62657630918054    0.64263215926685
O          -1.34412156933806    0.36571123345319    2.90967972391901
H          -1.36118387572023   -0.18189355198825    2.09185709144981
H          -2.24973605521843    0.63185949579864    3.07267265264625
O           0.95050857061283   -1.66752679182838    2.19287560084757
H           0.54762294406474   -1.49373353696606    3.04879464878692
H           0.21344465663460   -1.59329425595072    1.54038747311545
O           2.30411639343707    0.34498629846321    1.43904721224095
H           1.52782236525650    1.09408447200652    1.54903205704603
H           1.87227967290336   -0.52349686129126    1.78488733297344
H           2.38513433939038    0.23905744002596    0.41222553075208
N          -1.08751939949382    0.00172840274097   -3.61063228103046
H          -2.06216096683509   -0.40302255995713   -2.31856197459926
H          -0.79377939491765    0.96417740503913   -3.50641360953467
H          -0.35215496292061   -0.59442415287487   -3.24080388116907
H          -1.21199583692443   -0.19540887872118   -4.59521932554859
