    26
        -50.46048621  Gyration_radius:  2.45084904736 Dipole_moment: 2.418
 S           0.39739878900388   -0.06184427078973    1.18088725484041
O           1.77087797521924    0.22239178578806    0.79443023382400
O          -0.01288480014655   -1.40535459554867    0.77937232866874
O           0.27758305999471   -0.01948412204295    2.72746909406859
O          -0.51278089117651    0.94290461747824    0.62957853901092
O          -2.28782825419208   -2.26395176649976   -0.22335906059464
H          -2.93934530191402   -2.45872334106743    0.45135953656233
H          -1.46432439947611   -2.01320619520200    0.25404343797900
O           1.25315977107687    1.49796829481938   -1.39841144831477
H           0.50997982887692    1.95934406679763   -0.99020094967586
H           1.63697163035351    0.98490461116738   -0.64284530228403
O           0.55702776379683   -2.38909826227707   -1.57539693130714
H           0.52904397743602   -2.06491985573522   -0.64338485460156
H          -0.16765852395578   -3.01762523353422   -1.64538258785036
O          -2.05941329886564    0.16568691439673   -1.31662862005564
H          -2.34201885768879   -0.73089213662744   -1.03099895200641
H          -1.57783859433023    0.53942951065768   -0.53303958772802
O          -0.05599474517288   -0.21212025124631   -2.73183607527807
H           0.25961138137647   -1.12504576366835   -2.37560197247080
H          -0.99791224855387   -0.03525260105698   -2.22348521290369
H           0.57345314533568    0.49533108251402   -2.31273829892615
N           1.37862189025222    2.34509843856649    2.61762652284068
H           1.94188771154831    1.90160038743021    1.89714977099332
H           1.97878000332899    2.89869324563995    3.21517943628445
H           0.71537257337836    2.95980518895952    2.16417383454148
H           0.63823042450421    0.88436025112922    2.93203987438584
