    26
        -50.44273665  Gyration_radius:  2.52813686913 Dipole_moment: 3.844
 S          -0.67406460525989   -1.68451212108237   -1.70427999268382
O           0.65274458437508   -2.23064993874904   -1.64002691606494
O          -1.68611903805591   -2.41341539789468   -2.36941100028968
O          -1.14180489346361   -1.41887736456962   -0.22567661537915
O          -0.61715280501248   -0.25406409272543   -2.28940902192629
H           0.18283648855657    0.23891400855542   -1.92832352480185
H          -0.36199729168458   -1.47998352828659    0.41491355055643
O           0.80528712753677   -1.54062477329042    1.43864661217808
H           0.94317063059330   -2.44391594058645    1.73017780703036
O           1.32809284610963    1.13433238242304   -1.35294242541111
H           1.59828412398028    1.75045589769777   -2.03572732039302
O          -2.56450432183148    0.70659795939380    0.80806296312547
H          -3.49430573276347    0.49461630457640    0.90191922032672
H          -2.15603705337410   -0.04314525371161    0.34578369780519
O          -0.37223490346958    0.77189226744963    2.63483745315631
H           0.08088958223735   -0.04683390206415    2.39755192048568
H          -1.25183419186935    0.71663893422250    2.23442294961237
O           2.63622749238307   -1.04477876572055   -0.30667626190507
H           1.60200685632221   -1.30676792484881    0.86633389790183
H           2.16042112096187   -1.62721407770884   -0.92802687973621
H           2.43583756557677   -0.14796700419147   -0.61754322413793
N          -0.05565924881658    2.44451658450496    0.36948033580667
H           0.08129670633529    2.00384574355593    1.28416196529720
H          -1.03252302245867    2.29553519131836    0.13804583027241
H           0.09642139071487    3.43938926650553    0.47492972033188
H           0.80472061237851    1.68601551522603   -0.64122474115532
