    26
        -50.44273668  Gyration_radius:  2.52824947851 Dipole_moment: 3.845
 S           1.43113723323154   -1.68442906204580    1.14540884257192
O           0.92477041569109   -1.20971137652291    2.40281724333049
O           2.16153171540540   -2.89409642978009    1.11101131263092
O           0.20535077625105   -1.81483216233840    0.16762798250122
O           2.26807609990321   -0.57223927617740    0.47129299467233
H           1.82856479690623    0.32367578636486    0.60395195920875
H          -0.60844496324188   -1.34988658438993    0.54681517395731
O           1.18319399259656    1.74681409615816    0.65500347985002
H           1.88887544006650    2.39517143680843    0.67681003854403
O          -1.88130110913815   -0.63153746533936    1.07408388448748
H          -2.37824545931807   -1.21752426072336    1.64824658291615
O           0.02240901195574   -1.18983193814127   -2.51316143258277
H           0.12228113984145   -1.96828978532095   -3.06303596627962
H           0.20246337525275   -1.47125686504115   -1.60152730317242
O          -2.23937485796483    0.29611744855379   -1.60481432715521
H          -1.65284758004500   -0.32598752458678   -2.05873544820830
H          -2.29780768523503   -0.01036675463798   -0.69124865454727
O          -0.58566284078715    0.97950638634616    2.61378997006791
H          -0.05539164748393    1.51873653544856    2.00623240297105
H          -1.49081557824285    0.08064405161423    1.67179032710400
H           0.00000555642396    0.23589763822362    2.84982398360694
N           0.17155091256539    1.78181503841780   -1.70581070992009
H          -0.81919261953886    1.53309144800308   -1.62735785729998
H           0.60337384411290    1.02328151982526   -2.22366153528192
H           0.24015601136994    2.62422456354639   -2.26227498213615
H           0.75534400942961    1.80101354574557   -0.29307797182783
