    26
        -50.44596056  Gyration_radius:  2.5216725856 Dipole_moment: 3.878
 S          -1.93605299730751    1.01294255099433   -1.16899606276610
O          -1.68017270662818    1.81708656589949    0.00517110322281
O          -2.78752789895162    1.56351648579346   -2.15399606433192
O          -0.55047715770766    0.63693620964351   -1.77546685021490
O          -2.49785853484835   -0.36080922260283   -0.73211357186184
H          -1.79030795481691   -0.88195254567141   -0.25288147762681
H           0.15502900464810    1.04013403250315   -1.16516364621341
O          -0.63198591147705   -1.79602384848601    0.32968254823732
H          -0.97248028404588   -2.67340306610649    0.51077380185891
O           1.02009508714029    1.71434267474368   -0.08826926519419
H           0.34519844727350    2.36021840764898    0.15028490506006
O          -1.37957418526838    1.19176893647773    2.59064162887673
H          -1.58283716229617    1.41510625854850    1.66068269180565
H          -1.80452776033424    1.86188757564114    3.12674554021404
O           3.04135709915884   -0.41604653787167   -0.09540044808994
H           2.65050495317198   -0.47499409647244    0.78418763086506
H           2.89948051637374    0.49180521126790   -0.37992460334638
O           0.87281393611757   -0.08093339140489    1.83903363545789
H           0.19996196305875    0.37000712266649    2.37934229651726
H           0.37889563273330   -0.79745086787604    1.40271610862172
H           1.02503876262819    1.05812106838807    0.66298140224615
N           1.06586121021388   -1.85417601233611   -1.60646011047371
H           1.31724956066332   -2.68816077552030   -2.12007748903364
H           0.03417892602006   -1.87997592647024   -0.45807379788443
H           1.91309046543554   -1.46046462649882   -1.19000684355427
H           0.69504697891734   -1.16948217311577   -2.25541306241324
