    26
        -50.46468208  Gyration_radius:  2.48901559004 Dipole_moment: 4.796
 S           1.76907969605457   -0.36925406249707    1.39153533581069
O           1.66670270098953    0.74475259332007    0.46240882304663
O           0.99469016728201   -0.19615678831850    2.59496308246931
O           1.49336100215684   -1.63739055965993    0.71586786442650
O           3.28932752708395   -0.43133840672096    1.83588003033034
H           3.75834948980999   -0.37870857206281    1.00915995557195
H           0.57788374850818   -1.62850006656273   -0.59303371513715
O          -1.45311859857340    1.94354271985163   -2.33305178423793
H          -1.68594672170743    1.96501187695590   -3.26160689197096
O          -0.11002239748458   -1.63473113105111   -1.31011417961385
H          -0.46152912160264   -2.52732838665023   -1.30680842177999
O          -1.11967858081443   -1.72572171925391    1.53359928314358
H          -1.13831130158023   -1.39263673281465    2.43327119755213
H          -0.17465229937808   -1.83984925548271    1.34527459903258
O          -0.64480198287536    1.57874062681448    1.61249709357784
H          -0.11790637823599    0.93458030686806    2.13873935187025
H           0.02853473707239    2.05049451128122    1.10953381170572
O           0.93822362839639    0.84683065887326   -2.11279679885486
H          -0.49736931308283    1.67937995953107   -2.29224929905302
H           1.27776008143182    0.92539634126366   -1.19899524496439
H           0.69981226943544   -0.08432674761574   -2.19916323351476
N          -1.84020606785978    0.23054851898516   -0.32144011344287
H          -1.39021536548926    0.73635894468968    0.50629017665182
H          -2.73299229752425   -0.15349383371783   -0.03077611879048
H          -1.92195345955399    0.91229920691506   -1.10981529362736
H          -1.20502117244608   -0.54850002293042   -0.61916950020033
