    26
        -50.44364791  Gyration_radius:  2.70548859684 Dipole_moment: 7.587
 S          -2.11938574543591   -1.37054184275714   -1.54805177161277
O          -1.24725237759713   -0.21561359525741   -1.63170738176677
O          -3.02867589152710   -1.58117795166799   -2.60798974155125
O          -1.22713885126272   -2.62835070034865   -1.39923436998021
O          -2.87822852905795   -1.30134878859200   -0.19106359160232
H          -2.48665042540725   -0.57512154451858    0.36274200863276
H          -0.38974560423869   -2.42716626559130   -0.88708774170676
O          -1.49492102595795    0.64849998221409    0.82867676210520
H          -1.23804795771409    0.59955090518165   -0.11268116619055
O           1.02714235287708   -2.13972231334521   -0.21961655312273
H           1.61722191032604   -2.85128797395486   -0.47299383455654
O          -0.37334412980006    3.03869619215797    1.43333497563901
H          -0.60863554253973    3.27072995323613    2.33312953411285
H          -0.94684146751413    2.28150456518227    1.19014120105816
O           1.97043073227805    1.80649879336265    0.98688278936664
H           2.66638475884420    2.28852474616922    1.43516677432940
H           1.14982548551312    2.34100378085016    1.09314283762675
O           0.63541666518586   -0.43411010718915    1.92924529208250
H           0.81025967066177   -1.18783495388074    1.34673477544455
H           1.25857733685546    0.26462769259851    1.66244807299768
H          -0.76243295867038    0.20363447873060    1.33628808199757
N           1.60448644747564    0.07188344276635   -1.42753314027838
H           2.23931037044556    0.16041557442105   -2.20948309924710
H           1.83511214301969    0.78782314959042   -0.74399099048546
H           0.65879038624539    0.24553670373198   -1.76042060902175
H           1.32834225699110   -1.29665392308388   -0.72607914426738
