    26
        -50.46655134  Gyration_radius:  2.50727016884 Dipole_moment: 3.985
 S           0.19402993785698   -1.27282562346111   -1.67602565777680
O          -0.55570032684127   -2.33561128743405   -1.05015669533983
O          -0.46973930465341    0.02102850251573   -1.66999643770891
O           1.55202517396695   -1.16846209255937   -1.15419156086051
O           0.32741834151881   -1.66177754471550   -3.20946878661558
H           0.45761469548560   -2.60495225385115   -3.18946738108168
H           0.95873598666058   -1.42416377061603    0.41491810517177
O           0.68729160781988   -1.44566686808103    1.35227983175025
H           0.25636345045544   -2.29669872728449    1.46159044465779
O          -0.98451761553241    2.59310593661735    1.56595835202597
H          -0.69910188335892    2.90962502819023    2.42408046648691
O          -2.69671636364227   -0.89544750030961   -0.32141126984921
H          -2.05154527423256   -1.59848377725557   -0.51849723982335
H          -2.46625713141916   -0.19766624530434   -0.94340826187639
O           2.72171141603652    0.52654088927776    0.55915072320082
H           2.56890957611849   -0.11698375881579   -0.15981201778838
H           2.42733812051276    0.06824231857312    1.35374451094526
O          -1.54483578262967    0.08950660081280    1.90079659800595
H          -2.12245181754122   -0.25530911392621    1.18514498536891
H          -0.71290533045239   -0.40774981696062    1.81233708137208
H          -1.30686178657650    1.65470460724973    1.71540767710196
N           0.69882870133753    1.98498261245631   -0.37432134626287
H           0.20963376445027    1.22992354688051   -0.93488826104532
H           0.04145456193154    2.31176839600024    0.39258686430190
H           1.55783066995735    1.53792861565096    0.04851075164503
H           0.95144660277619    2.75444132639132   -0.98486148605104
