    26
        -50.46655139  Gyration_radius:  2.50722815066 Dipole_moment: 3.985
 S           0.66832990336819   -0.97816269972516    1.74987761320349
O           1.86022039188942   -0.16876669717484    1.83713220061339
O          -0.56815131174771   -0.22338050352409    1.62332542258960
O           0.76610871589153   -2.00226326583865    0.71592676427560
O           0.54456129938380   -1.74406877401075    3.13498276753690
H           1.44591229973072   -1.96284032551796    3.35108158954815
H           1.50043684461398   -0.87378853961949   -0.31700012899517
O           1.81694417265387   -0.26101783596771   -1.00776677198554
H           2.64895517454872    0.07844018204252   -0.66949532435987
O          -1.96931044268259    1.80655422246125   -1.73361723036435
H          -1.98493147308599    1.91686158984645   -2.68524109253227
O           0.68622145190773    2.23456258435053    1.64828538368418
H          -0.16958207768715    1.85843114585383    1.87852344607681
H           1.30212297475073    1.48901056193712    1.76719397777905
O          -0.26027033414814   -2.20706885258479   -1.75027498713007
H           0.11337319637114   -2.42226458108663   -0.87365650878573
H           0.42369055734483   -1.67890904830491   -2.17608874850760
O           0.49547073092639    2.16675000786856   -1.03403227765651
H          -1.04035600262801    2.05385496084992   -1.44612031802096
H           0.57858046683763    2.37419474301548   -0.07761108776705
H           0.95472066690737    1.31607171577704   -1.14642059327559
N          -1.98367047936327   -0.55984104820384   -0.56389973899323
H          -2.05940393586018    0.37797351918416   -1.05574413017724
H          -1.40626209086237   -1.22925409855424   -1.14267133980300
H          -1.46027468645622   -0.41845087586263    0.34703976202694
H          -2.90343602264571   -0.94262807714312   -0.37372861897160
