    26
        -50.44199418  Gyration_radius:  2.59620949975 Dipole_moment: 5.530
 S          -0.56545899530432    0.51100560560088   -1.83537751816729
O          -1.06559480081130    1.34972450193102   -0.77051336448379
O           0.09884357379353    1.17976249100679   -2.90284121931444
O           0.45626707313046   -0.49882800948411   -1.19903288764544
O          -1.66976247953168   -0.41414016723111   -2.31637789450065
H          -2.38565274952061   -0.44987691422595   -1.55406176388796
H           1.32914130450715    0.00469135969946   -1.21419621596590
O          -2.43624633165335   -1.85131172811067    1.58310778362444
H          -2.68042730605755   -2.77160843696027    1.47551913902401
O           2.42038538910428    1.13134998742229   -1.30834514432952
H           2.17891390096153    1.41451305564673   -2.19782912590373
O          -3.21243255601098   -0.24480124441728   -0.36474603580896
H          -2.79780397424544    0.59684366152389   -0.12996425129528
H          -2.98349496021421   -0.87022700907818    0.37268260584982
O           2.44103525350142    0.35322764433011    1.61668469396491
H           3.17332104272938    0.73835226075132    2.10218763526294
H           2.71712560055661    0.30585933377261    0.69452630347666
O           1.03040969735398    2.51918021513933    0.41789529536866
H           0.16472398921727    2.27046608257604    0.04223607064471
H           1.17212102504489    1.93093433006148    1.17177968853103
H           2.01728900568538    1.81231237379362   -0.70010744377554
N           0.23966752023299   -1.82491719747523    1.43199979923507
H           0.32916877188054   -1.56572499934391    0.45345341851779
H           0.74055615530746   -2.69500499482195    1.56589466934369
H           0.72962194178719   -1.11131677860062    1.96017838606682
H          -1.44171709146122   -1.82046542351732    1.60524738616237
