    26
        -50.44199424  Gyration_radius:  2.59622733215 Dipole_moment: 5.528
 S          -1.01867647725807    0.72463102576026   -1.54295458842265
O          -1.52604721348951    1.07813956812255   -0.23717279942592
O          -0.78255673404487    1.80580792318954   -2.43929872038657
O           0.34708069361507   -0.02293138107729   -1.33103063963902
O          -1.88673536137851   -0.36428307870924   -2.14920109121533
H          -2.40878256598477   -0.80822940960289   -1.35846006235933
H           1.02319181134425    0.72343338978659   -1.29405458550916
O          -1.47731101079485   -2.85847901105647    1.23554934233016
H          -1.46918085098323   -3.75426498273925    0.89541252070620
O           1.71432855627371    2.12994795898494   -1.17793783752998
H           1.23924757617669    2.52310983958947   -1.91916636098928
O           2.50140803898336    0.72176810226379    1.38318124224913
H           3.17452788193790    1.19280606594387    1.87846521800239
H           2.60117762607693    0.98774121844494    0.46221093689750
O          -3.02321919484417   -1.16905362945703   -0.08091846029878
H          -2.82526397887431   -0.32071715536259    0.33930205668615
H          -2.49433577397761   -1.84507287728303    0.41985109959649
O           0.34031125741830    2.54052875573661    1.00899527122433
H           1.25798533218931    2.47895884265671   -0.36188404491031
H          -0.47485000653197    2.12379437592853    0.67095453346729
H           0.78141572020590    1.86646912397244    1.54343600501611
N           1.00571038565236   -1.93877557342015    0.81940342684657
H           0.83410271449754   -1.43724896875836   -0.04766333115753
H           1.74691501717485   -2.60684290168700    0.64567355349309
H           1.36507214393450   -1.25473370393058    1.47606598462725
H          -0.54551559728214   -2.51650353733291    1.16124136066646
