    26
        -50.45731793  Gyration_radius:  2.5598397604 Dipole_moment: 6.802
 S           0.46088224868053    1.37724490251759   -1.81793021275836
O           1.15042689062849    2.33033328646616   -0.98037453694564
O           0.92981735294866    0.00710575832853   -1.68637293672222
O          -0.98702879033877    1.46250689384895   -1.67323829482104
O           0.78699153694890    1.78241953891870   -3.32190194314248
H           0.68366450553490    2.72867941141965   -3.31264872879061
H          -1.10754485847270    1.42764293188871   -0.14627236033295
O          -1.22574023240279    1.33084319446331    0.84516409132032
H          -1.51291935132746    2.19014060451553    1.15754953883756
O           0.01475880678055   -2.17653137223615    2.31198993598058
H          -0.05761566668943   -2.35806365111336    3.24969621654105
O           2.78947494500722    0.58111392035748    0.17510291303520
H           2.40364180108595    0.00392801257147   -0.49943666968335
H           2.43792969495742    1.45103149042878   -0.08399697032139
O          -0.82599750393645   -1.87654431001071   -1.67643929830535
H          -0.25181978007966   -2.64582344898849   -1.67314982876716
H          -0.21399910641210   -1.09878266367072   -1.78203405655271
O           1.01736121701322    0.19790300226594    2.12036571634039
H           0.31045414352428    0.72237785515996    1.71460383421809
H           0.51983917662809   -1.31006086506645    2.24245499953037
H           1.78749143929127    0.29586725658607    1.51043968581521
N          -1.84886738899063   -1.29058069310963    0.67456189545073
H          -1.19580378590288   -1.74230631725732    1.37819221842158
H          -2.81003544380885   -1.58949500013876    0.79524466081248
H          -1.76169325768816   -0.25800536968359    0.78077126769003
H          -1.49366861303127   -1.54294436845086   -0.30234112679531
