    26
        -50.46655137  Gyration_radius:  2.50722942087 Dipole_moment: 3.983
 S           0.09120311526003    1.24780915672126   -1.70326222951898
O          -0.72022504244902    0.35379248214802   -2.49419146330700
O          -0.48540040402896    1.61203355918861   -0.41891568000315
O           1.45870481298561    0.76531172155335   -1.54659518569626
O           0.18169093424293    2.60813465691609   -2.51647173929161
H           0.24929635378456    2.32194088454732   -3.42227170727370
H           0.86720186069096   -0.80765507830172   -1.31020442864462
O           0.60550465490577   -1.71091853245556   -1.04860411291801
H           0.12083209096521   -2.05247538823476   -1.80380137119431
O          -0.79423916590615   -0.76348925309164    2.98863283187373
H          -0.47831149158822   -1.49999146004976    3.51377104443966
O          -2.75365098723911    0.07799066228526   -0.76882840011915
H          -2.48589353007341    0.86971153399153   -0.29095830800713
H          -2.15761597029880    0.06430822544426   -1.53955406645034
O           2.75650555942637   -0.41021452359340    0.48072827470632
H           2.55337070146200    0.09947742184430   -0.32757950126036
H           2.44153753117022   -1.29943860495582    0.28544987220620
O          -1.51435268248562   -1.78529032094552    0.72347200597319
H          -0.71810365430010   -1.84746877606480    0.16728309264533
H          -1.17610841617803   -1.16851867370779    2.15376207970615
H          -2.12131290641732   -1.19126604102776    0.23003301156536
N           0.82423516293483    0.91271238203584    1.74837633956219
H           0.28023051882088    1.24180260778612    0.90018649577868
H           0.19807311582850    0.27438222487111    2.32085843052967
H           1.65639035574729    0.37406827763759    1.38254165451500
H           1.12043748272975    1.71325085546701    2.29614307018143
