    26
        -50.45757804  Gyration_radius:  2.42016041636 Dipole_moment: 8.342
 S           1.96746166161339   -0.26123000775385   -0.27911199887220
O           1.85262394708321    0.65470439038234   -1.42536118778077
O           2.71080729196379   -1.45107327318134   -0.57058122409898
O           2.67883673336903    0.53706674207278    0.87626747925044
O           0.62475753427581   -0.55308348411281    0.23970667697113
H          -0.58754953874814   -1.33471083256419    0.76062456703843
H           1.96320688586326    1.11368800886838    1.20157924858605
O          -1.48506550816575   -1.71159420975359    0.98741538530763
H          -1.32177228394166   -2.61051070967612    1.27642065599592
O           0.51304829395134    1.96760122204535    1.72281964515644
H           0.75495373946439    2.57286902980387    2.42673937425477
O          -0.41326915380895    1.80596917414704   -0.94864073745747
H          -0.28800765822248    1.96614273581516   -0.00257837875495
H           0.48456771326418    1.48971373983082   -1.23423129294982
O           0.75856886604578   -1.42159071295989   -2.57085846406317
H           1.21839289696452   -0.56458733007825   -2.43165767474025
H           1.30192948441853   -2.02079095667430   -2.04317629057626
O          -1.46361654248307    0.43185398548516    2.71946252545067
H          -0.11853244562080    1.32040364876648    2.11307488656064
H          -2.31167645494078    0.86262248246718    2.59767853303742
H          -1.49085257645756   -0.38597185398997    2.18786035300146
N          -1.50789985155736   -0.49218575914491   -1.53052376340016
H          -0.66159826538572   -0.96735445567643   -1.96563983806112
H          -1.14037865767120    0.48876623565949   -1.24378102759082
H          -2.27719192428237   -0.42996070514691   -2.18857538759755
H          -1.76174416699111   -1.00675711463738   -0.67493204466798
