    26
        -50.45420603  Gyration_radius:  2.39512817587 Dipole_moment: 8.241
 S          -1.24463484387349   -1.63957951733004    0.21951642206558
O          -1.26930631220256   -1.78383119886053   -1.24359381562804
O          -1.39923863260108   -2.84762315453147    0.95789021785479
O           0.20702904430196   -1.04978841156661    0.51702926187811
O          -2.11945015990058   -0.54628154524014    0.65162222647144
H          -1.93240255515352    0.89185247499257    0.09377866687665
H           0.88627350836369   -1.58773376916207    0.06712893595173
O          -1.75967273099515    1.79243126258337   -0.31627065824192
H          -2.58923519537087    2.26747462705396   -0.25352357464357
O           2.08276158278523    0.90470023225812   -0.68597817686522
H           2.66652768148895    1.65173876605839   -0.82613106916469
O           2.45174795033028   -1.81917246952759   -0.66540642859853
H           2.52672562364858   -0.84977128053122   -0.71713818876099
H           3.05734185233615   -2.10947932656719    0.01901879473423
O          -0.73195709036712   -0.01886695524720    2.87698332550097
H          -0.34388923034342   -0.86343140846919    3.11124016374969
H          -1.35820320729775   -0.21934943357742    2.15542578511563
O           0.58816854375331    1.74310862406470    1.25651474572905
H          -0.21906867215295    1.98791732751046    0.78071751541599
H           0.28146999338527    1.09018969033115    1.91981757086504
H           1.54415372451882    1.13293844651461    0.13591864796288
N          -0.25069285392664    0.38990819952459   -2.03882073032205
H          -0.67468518332989   -0.59651997911476   -1.75172820215649
H          -0.86529919726574    1.09475028081337   -1.58382570630011
H           0.70198878874195    0.49039094218381   -1.63275328977124
H          -0.23645243888190    0.49402756582007   -3.04743243971535
