    26
        -50.44521430  Gyration_radius:  2.44121226736 Dipole_moment: 5.421
 S          -1.17636317023714   -1.16947115012578    1.37272338648322
O          -0.35042316576964   -1.95644895611527    2.23636585135877
O          -2.54162269567224   -0.96033997617595    1.72368844650621
O          -0.47904048611705    0.21038242481709    1.19048390665182
O          -1.16915980967928   -1.77550131117046   -0.05182501883978
H          -0.28194842214804   -1.66132036961076   -0.50598443946116
H           0.37915849667180    0.17080921218752    1.79446908206997
O           1.60792929524507   -0.10153408987541    2.50865767622117
H           1.37292186879175   -1.01640285399641    2.71867452940995
O           0.94316600843903   -1.27942647090344   -1.42057359122325
H           1.01599809259619   -1.90905601019510   -2.13969738446554
O          -2.86307106679912    0.51098530047878   -0.54218806971241
H          -3.61768818865426    0.07873606000027   -0.94775942608560
H          -2.76326254522104    0.08775826478219    0.32663553478297
O           0.95700098450904    2.25684765859135   -0.02626392221350
H           1.10108908401929    2.91658626366230    0.65452511006107
H           0.27418093602584    1.65783553136131    0.31433558265479
O           2.74170847143344    0.11882936355767    0.15293125423569
H           2.26630242584885   -0.50998978211658   -0.41164811981240
H           2.32420765029659    0.97851347946735   -0.02831812851881
H           2.22653842794502   -0.10753318400958    1.72875940005155
N          -0.44220570605766    0.75701644696358   -2.19009287156065
H           0.04307006878300    1.59579247068306   -1.89160729438327
H          -0.72432745389077    0.88075998295443   -3.15398373822987
H           0.44334072647341   -0.45165020597728   -1.79175427166287
H          -1.28749981683286    0.67782189076941   -1.62055348431991
