    26
        -50.46197619  Gyration_radius:  2.55956363076 Dipole_moment: 8.577
 S          -0.86440394067226    1.45976045385325   -0.06706660845845
O          -0.23910004515911    2.21615097203392    1.00219013466572
O           0.08728494386697    0.78472906279355   -0.92311469856615
O          -1.86164303244235    0.51726761954663    0.45701800301150
O          -1.64453114341819    2.46880097755145   -0.98699861143266
H          -2.25795671042328    2.89294079138829   -0.35826326734050
H          -1.19946512403759   -0.83978950741164    0.75680171911656
O          -0.76581668478867   -1.71348627960040    1.00157113750099
H          -1.48950349009640   -2.29225675127920    1.24803735091749
O           3.03219554880606   -0.77426648473116    0.16019960768948
H           3.70837279455495   -1.10853580217052    0.75201962305833
O          -2.82107651266678    2.91165268449001    1.35539014775509
H          -1.89621150755872    3.01012045965707    1.62741172081120
H          -2.95215841333121    1.95471130061716    1.31429094089417
O           0.11922320943401   -0.77103512194036   -2.95487920479834
H          -0.05202683214274   -0.08822763762841   -2.25384166261820
H           0.72952505157354   -0.35170072066795   -3.56464973862497
O           1.26731724056315    0.19115373742311    1.84475550513083
H           2.41214046695051   -0.24867274108095    0.73378891340403
H           0.82046342366248    1.02069447490955    1.57989700031341
H           0.58166380094952   -0.48677251616648    1.83169409977656
N           1.06452405778445   -2.17986221956861   -0.91863643682685
H           0.31156821088268   -2.04978636563651   -0.19874218431309
H           0.73307393871326   -1.69970791281083   -1.80413455673035
H           1.91602823100580   -1.66140203920270   -0.55989884379236
H           1.26051252799352   -3.16248042436661   -1.07484010053578
