    26
        -50.45391071  Gyration_radius:  2.52593326866 Dipole_moment: 5.278
 S          -0.46842580653779   -2.40568195238033   -0.12393419578586
O          -1.37163205624560   -2.34197416817041    1.00345251640118
O          -0.83269240318029   -1.49509028669830   -1.19447678541005
O           0.92211646561402   -2.22388492782859    0.29878091679664
O          -0.56923501547832   -3.86824907897055   -0.73824243099789
H          -0.50437691091875   -4.46302558689907    0.00463252176855
H           0.69775301837660   -1.16393626753798    1.50316031206384
O          -0.28299208470259    2.92002718149783    0.02673248837529
H          -0.35015945763497    3.76196416240381    0.47709416926819
O           0.33653820939400   -0.50659470049708    2.15375884976757
H          -0.16265552109075   -1.04619040493804    2.77244483212787
O          -0.29423485644941    1.47283708350987   -2.35784901907913
H          -0.22412259546699    2.17952502325730   -1.70067884898021
H           0.19201426166129    1.76043816319793   -3.13147235804588
O           1.74478492795245   -0.09720527974848   -1.18671688522350
H           1.55134653545054   -0.95177159101700   -0.76551735749385
H           0.94982396111698    0.13067447896699   -1.69542681606017
O           1.77211038889694    1.59078194660968    0.84375079159426
H           1.92002465084436    1.00189358517572    0.05932906526715
H           0.56789094294203    2.48854619944257    0.35165650594711
H           1.50812280490787    0.99219646924836    1.55170486001591
N          -1.43875868049228    0.47719037070065    0.37037411265584
H          -1.24949919310225   -0.19742357743715   -0.43718032354498
H          -1.18233076844827    1.45568553816389    0.12666520709051
H          -2.41458841353481    0.39113213742692    0.63594594235742
H          -0.81682241388032    0.13813549252064    1.15201192913848
