    26
        -50.45391012  Gyration_radius:  2.52608958088 Dipole_moment: 5.334
 S          -0.16843655570506    2.31236441648784   -0.80252652494212
O           0.83022394585830    2.08757514635956   -1.82405345718527
O          -1.28309327559862    1.38547049794879   -0.88516522297225
O           0.43109500869462    2.32622753120945    0.53340498180381
O          -0.78001406126770    3.75960771979216   -1.04436108478745
H          -0.03235868749642    4.32628277862326   -1.21652174895327
H           1.58938429979690    1.21484422199983    0.31803635706630
O          -0.02891341146807   -2.92859464841112    0.15913033643729
H           0.40640288138362   -3.78101483086565    0.15989392403332
O           2.18311076173731    0.49471573881955   -0.02079749931118
H           2.73623601003282    0.93843286625270   -0.66900544513473
O          -0.94950857815808    0.38579965196763    1.85092968151386
H          -0.55143851966542    1.19105510209261    1.47919823469753
H          -1.55873092288390    0.05607427049292    1.17062952342722
O          -2.38668007659499   -1.43924845069247    0.23881551601762
H          -3.08924948741187   -1.63040607183617    0.86131816392242
H          -1.73008616188478   -2.14427211473413    0.32808435978708
O           1.05663838600157   -1.33098109437603    1.86962915751588
H           1.72746125320424   -0.79642418767996    1.42979173677574
H           0.30184019697356   -0.70681415160509    2.02721918707267
H           0.40649078242614   -2.38419356139739    0.88711582751890
N           0.17622656833849   -0.69400119550111   -1.38467682918644
H          -0.03797948039652   -1.61694540036359   -0.95441776296289
H           0.31149566088801   -0.76073739838661   -2.38835421671055
H          -0.59509348132788    0.02226295323730   -1.19626334252949
H           1.03497697448635   -0.28707978943439   -0.92705384292378
