    26
        -50.45390979  Gyration_radius:  2.5264846282 Dipole_moment: 5.335
 S          -2.36665474389674    0.51929043163344    0.38804327435696
O          -2.73533704405508    0.08853057499901   -0.94236357535688
O          -1.66935168453242   -0.50601033587887    1.14358807197415
O          -1.61461291947008    1.77524704061313    0.35101961350173
O          -3.71125260755121    0.81458967716537    1.18286416391981
H          -4.26164939204890    1.30577233633483    0.57824790279649
H          -0.79354600129745    1.55490299497860   -1.02759300922336
O          -0.37712926857606    1.19583739195783   -1.85437365489279
H          -1.09775709051263    1.18739669036949   -2.48971967596145
O           2.50838511125207   -1.39838079827721   -0.59350410011734
H           3.22207543928965   -1.64460852932490   -1.18190338872477
O           1.28067483737067   -1.60744874300022    1.90367893294484
H           1.77907284137875   -1.54411481896068    2.71929346002251
H           1.92278434377316   -1.61689726394517    1.17993417501745
O           0.70245756333505    1.14697573132487    1.63222421049598
H           0.57997425664739    0.20887866398890    1.85027589967907
H          -0.16431558241190    1.46016096189646    1.32269730511838
O           2.17279289305791    1.15956658676182   -0.56083684162126
H           2.47715488069712   -0.39095351923553   -0.58711634841068
H           1.49730095996844    1.40382267477308   -1.20370203644288
H           1.73003902212426    1.26512783371710    0.32062212400720
N          -0.20235415040775   -1.30068939899701   -0.83637186911011
H          -0.70406146406331   -1.13293891877757    0.09288898448516
H           0.79812788661764   -1.55092294375893   -0.69730742533665
H          -0.70917653542857   -2.01583898213053   -1.34808289109381
H          -0.26364153126883   -0.37729532823356   -1.34250328204504
