    26
        -50.45420602  Gyration_radius:  2.39520978358 Dipole_moment: 8.240
 S          -0.87932440588881   -1.77543951590523   -0.59973035206767
O          -1.80426360179767   -1.00284112636212   -1.44212628832685
O          -0.57170409687313   -3.08503714945697   -1.06752539439589
O           0.45928695414532   -0.90841028510814   -0.61371909499297
O          -1.27764425323536   -1.71051473269451    0.80897611486735
H          -1.44348401106166   -0.34344886825534    1.52870447527694
H           0.70448376218796   -0.68495349682178   -1.53191203701276
O          -1.54104763753598    0.57430095775052    1.92524332654647
H          -2.14495992267755    0.47355406685057    2.66208464666139
O           1.23528592598229    1.95101779148624   -0.54140261654341
H           1.62400378788070    2.79176879574978   -0.29540751700198
O           1.19770877417859   -2.07271470823749    1.75571334345082
H           1.62909036806085   -2.59508386895610    1.07761705403412
H           0.25569018986861   -2.05431529851644    1.50023154103693
O           1.47978354879355    0.31228947165858   -2.73487016349312
H           2.37205818228103   -0.01581142283112   -2.85991069833256
H           1.52820820093943    1.01548861989437   -2.06313513388699
O           1.27544960007282    0.65948180026175    1.70379360130992
H           1.32347929588541    1.36363476573176    0.27395721956632
H           0.35209639654101    0.74106606405448    1.98437471139592
H           1.42910438181759   -0.30804226397013    1.67857354211487
N          -1.44628103176218    1.36813868458198   -0.63850553809935
H          -2.05459219950945    2.04933004897160   -1.07930953926790
H          -1.63423203925283    1.28114371363556    0.38060971838609
H          -1.62424136226841    0.35395302338926   -1.05651216972281
H          -0.44395480677528    1.62144497310332   -0.75581276150679
