    26
        -50.46310214  Gyration_radius:  2.36983615234 Dipole_moment: 7.822
 S          -1.06744935426945   -1.33895356205874    0.96965481788584
O          -1.69346895588229   -2.46616423220923    0.31835075222926
O          -1.30494621354539   -1.16184730535135    2.36755235132633
O           0.52281193673416   -1.57640744295429    0.84158009720404
O          -1.28103051277869   -0.09399834433372    0.20234795191018
H          -1.13411632995275    1.43417657724156   -0.49667684647481
H           0.68655718312375   -1.59707313568426   -0.11944303117285
O           0.94625543045497   -1.31238860093311   -1.80963493329237
H           1.35635066341948   -2.06105635728661   -2.24550525553220
O          -0.76327520611878    2.31615649815792   -0.71205285903867
H          -0.84142544794774    2.81060509363767    0.10987197997151
O          -0.62085247916745    1.49416861048082    2.19344223762107
H          -0.90486686134478    1.08413825357514    3.01531532091935
H          -0.95088689261274    0.86687629199963    1.51103395365886
O           1.83308859894663    0.65081958871825    1.67988608543246
H           1.02453175460759    1.11113093808295    2.01570674973293
H           1.56926543758521   -0.28495563767435    1.65446595998293
O          -1.58432900800055   -1.59301975528899   -2.09827472550317
H          -0.04358607419159   -1.38144435982221   -2.01367208906510
H          -1.71426975713579   -2.04364649473684   -1.21900830651126
H          -2.02043629697564   -0.74381537500797   -1.98881505586621
N           1.61934804883391    1.18640420676951   -0.85706381431923
H           1.45231479441835    0.27712256435035   -1.32211519380890
H           0.71413395722251    1.74413074939711   -0.89354995159093
H           1.81494515015668    0.99425996043435    0.19302760536544
H           2.38533643442980    1.68478126049984   -1.29642381106914
