    26
        -50.46197620  Gyration_radius:  2.55973577008 Dipole_moment: 8.581
 S          -1.03325561585301    1.34333567039932    0.11189368518560
O          -1.21287975241958    1.45165341209255    1.54810363965974
O           0.34426468872214    1.13294476315576   -0.27848214869963
O          -1.90602055308538    0.30941470957520   -0.45968274279260
O          -1.47126526351112    2.70630845473362   -0.53883048961521
H          -2.39440520065915    2.79483895336703   -0.23629593486525
H          -1.18119769277167   -1.04859355252332   -0.47005160233247
O          -0.73395908095657   -1.94868301827702   -0.43538646945014
H          -1.32664073837073   -2.54135642356927   -0.90120395216406
O           2.64356650971235   -0.88751731698576    1.42953027202906
H           2.99639862067820   -1.49840980133046    2.07874387335559
O          -3.71412512634309    1.99741904136627    0.69985482718979
H          -3.09486501380065    1.90916479883537    1.44001884160928
H          -3.58066709910492    1.18975080128125    0.18564067088777
O           1.73715573351348    0.76859987238540   -2.39427883310798
H           2.45156500713728    1.40439387968769   -2.31955290724003
H           1.08818342695392    1.02841696017711   -1.68838971376362
O           0.10835884897445   -0.79140120766050    2.09876193602186
H          -0.32974221828007    0.08058142784509    2.02327049155856
H          -0.30128847280878   -1.34539409996372    1.42410180658023
H           1.71825098758143   -0.68242249381138    1.73198703728823
N           1.85516458482153   -1.49676729669257   -1.02385603144479
H           1.90134708703611   -0.63053152568457   -1.63392728225845
H           2.27062904208851   -1.25855102425874   -0.07883600751801
H           0.83892235979048   -1.70236645183752   -0.85899907218685
H           2.32650493094895   -2.28482853230043   -1.45413390392337
