    26
        -50.46917239  Gyration_radius:  2.43964445649 Dipole_moment: 3.393
 S          -0.87363247235971   -0.00668045824286    0.21636955903258
O          -0.93963905085360    0.34843183339862    1.75447238891073
O           0.51218778954853   -0.40666407567763   -0.01665499146843
O          -1.81668736644217   -1.05845722946411   -0.06678424309824
O          -1.19807022944692    1.24684886864591   -0.46354513553843
O          -1.60592966206597   -3.26926000188253    1.37788486109654
H          -1.73726370090019   -2.52768203973059    0.74797304599014
H          -2.45631399146860   -3.41608761769266    1.79521741773744
O           1.66980745174422    0.27475160213351   -2.31065581387329
H           1.45964087882899   -0.20425129845815   -1.48491547222817
H           0.86759866984495    0.13557803278706   -2.84600339776310
O           1.48884009859522    1.72241824388435    1.63790060567806
H           2.01410908406668    0.91943278561045    1.69280694278754
H           0.57189476489033    1.43761331588663    1.78470733300690
O          -0.99000232749981   -0.15146274705151   -2.77921815372362
H          -1.25151062430224    0.43585612313091   -2.05348767915058
H          -1.34481601492420   -1.01025763493295   -2.53782073518551
O           0.39016720699013   -1.76396965238370    2.31709566997524
H          -0.25089756104953   -2.48997375524893    2.15973851232957
H           0.78194653532958   -1.58781043700158    1.44751941477977
H          -0.51201122458714   -0.44991778524559    2.18991702967703
N           1.06718898836088    2.40564972861831   -0.92653685653719
H           1.47528526419708    2.29529537348155    0.02886302435618
H           1.47510027306736    1.66863681416756   -1.58953426998666
H           0.05638096351015    2.09870422653380   -0.79741099192349
H           1.14662628692322    3.35325777474301   -1.27789806487580
