    26
        -50.46197620  Gyration_radius:  2.55962716768 Dipole_moment: 8.579
 S          -1.34313722417921    1.03602642442487    0.07964934678367
O          -1.29110897366374    1.47250789000280    1.46285274675687
O          -0.05517359723136    1.06739215274674   -0.57937545999876
O          -1.96313855405531   -0.29014745088745   -0.03960987333656
O          -2.26640379219109    2.03279280804918   -0.71216238479380
H          -3.10710486673605    1.97341718553127   -0.22102402756167
H          -0.88783318970146   -1.38761248777259    0.05418898676511
O          -0.19889093475433   -2.11198596389294    0.16367193504972
H          -0.66534695294909   -2.93062234174506   -0.01450642960949
O           2.99562906122668    0.18248104544487    0.90116938307253
H           3.61969065518363   -0.13252971396238    1.55723101366939
O          -3.95124729360693    1.15788457167231    1.14868675564111
H          -3.68040068031524    0.30000894881018    0.79476834922664
H          -3.21348521027219    1.41932201586298    1.72006398757981
O           0.98813729970281    0.50531033151541   -2.84755050764753
H           1.48716108779828    1.29088177918074   -3.07981945534832
H           0.42646342057347    0.77787579631173   -2.07477753375646
O           0.70151338920777   -0.16079846929548    2.12728121226267
H           0.35904289049787   -0.95435049515654    1.69968095726053
H           2.11902194453139    0.23127556998762    1.36902731061001
H           0.02222061569646    0.52880396803148    1.98237613172859
N           2.00053411240523   -1.22196327307835   -1.11102104127892
H           1.68424311231147   -0.56205493871647   -1.87855968252674
H           2.59773677061126   -1.95821205556507   -1.47104969488010
H           2.48793892979149   -0.65072214628863   -0.36361248385327
H           1.13393798011679   -1.61498116120888   -0.66757953181518
