    26
        -50.46310208  Gyration_radius:  2.36968189879 Dipole_moment: 7.816
 S           0.07991165876877    0.04531232683335   -1.96403832905964
O           1.30626965003153    0.25711938244983   -2.69736456852698
O          -1.13332338762307   -0.05686716425023   -2.71199433182406
O           0.24031232831574   -1.38160961759020   -1.22892612316504
O          -0.03583202090707    0.99079451007443   -0.83418922466234
H          -0.39501879423113    1.74123858374281    0.63434920791926
H           1.01357515683193   -1.26686893672503   -0.64631620234630
O          -0.76928399758661    1.87736467410250    1.53040935985389
H          -1.71800042624459    1.93930891051196    1.38125524471023
O           2.18173256534630   -0.89586442370763    0.58101596780320
H           2.95635755102866   -1.45808011435229    0.53041121435226
O          -2.61514037136841    0.60001064276570   -0.49237447079917
H          -1.67597450439625    0.78548292376213   -0.71964357051269
H          -3.01454078252330    0.43564609886684   -1.35121294414552
O          -1.83450435719562   -1.72939009054870    0.48923511167654
H          -1.24143523503016   -1.91355177569183   -0.25929235627492
H          -2.33384589483678   -0.92658638149742    0.19873989847958
O           2.71759272749918    1.21348223015888   -0.77186306241214
H           2.14889780434103    1.93468079458606   -0.48949433063684
H           2.43965931520289   -0.02763862725417    0.12740319796124
H           2.28789792378685    0.88299790679446   -1.60803079237936
N          -0.11013804097874   -0.61830519111903    2.08962540795687
H          -0.84719793172156   -1.15640852926780    1.50221828989016
H          -0.09796421813900   -0.93098551853498    3.05410217174018
H           0.81382359147095   -0.75318328590180    1.64343918614122
H          -0.36383030984393    0.41190068180005    2.01253604826310
