    26
        -50.47015207  Gyration_radius:  2.48529711896 Dipole_moment: 4.013
 S           1.21392044789799   -0.73103515043063    0.14316954376569
O          -0.07735252513141   -0.94221639512752    0.78581554810437
O           2.22733516094994   -0.38459517274247    1.12056728730892
O           1.61305430889248   -2.07690623617602   -0.56325229628995
O           1.12398411198244    0.24350909787301   -0.94261738391098
H           0.23029375900885   -0.55298543749608   -2.18075153412045
H           1.69980095261975   -2.70294807313266    0.18356897165930
O          -0.39892199575637   -1.07204383641212   -2.71537612896736
H          -0.03742961753188   -1.96003887658731   -2.74117557748089
O          -2.52133675539650    2.00389682748107   -0.75655510402720
H          -2.79060360307053    2.20907064762416   -1.65347020809808
O           0.52663283106762    1.30025602203952    2.30698814467534
H          -0.16633755020009    0.63128797973368    2.34855480544494
H           1.31652044210637    0.79944768995004    2.01657818707101
O           1.53287649879619   -2.88585925723989    1.94289699066319
H           0.62773520391727   -2.55147682673529    1.96015747360070
H           2.09207491043677   -2.10786562571718    2.08086214744647
O          -2.23464906315541   -0.57635810773231   -0.76061604401015
H          -1.79930388376303   -0.79137140479204   -1.60713774784912
H          -1.54886314434184   -0.76152765754072   -0.09111927170467
H          -2.51106336867449    1.00144685045343   -0.70275782667493
N          -0.02481225300103    2.41647857600291   -0.03952670691232
H           0.11051638108458    2.18337358218572    0.98114946315481
H          -1.05575337214811    2.35436176464588   -0.30590611213197
H           0.37275554885901    3.32048187784569   -0.27059452387655
H           0.47892658455393    1.63361714204603   -0.53945208682782
