    26
        -50.46489269  Gyration_radius:  2.4154493266 Dipole_moment: 8.726
 S          -0.16896625211179   -1.52731868717782    1.12220918896893
O           0.07491343675228   -1.33536626555307   -0.31389849659666
O           0.42222251142234   -2.70059927055299    1.66455632502588
O           0.17341373037845   -0.28720244852650    1.84767314958381
O          -1.73960246347769   -1.64418901633518    1.24902408308215
H          -2.09060944922145   -0.81474303331246    0.88378979239751
H           1.89954592806195   -0.66222461689337    1.88045646334745
O           2.74228301798882   -1.05750036885930    1.61009349728492
H           2.57713818381020   -2.00374555566692    1.66076772303821
O          -2.71583026454636    0.59920590074781   -0.03939771675419
H          -3.65783734599389    0.46568520071677   -0.15750733348461
O           2.43720341229251   -0.29293646181724   -1.00211833101245
H           1.63716440138346   -0.83565293723090   -0.87120293720684
H           2.89924016542282   -0.38093288905048   -0.15165085254389
O           0.90620159033170    1.73887013522088   -1.63392640201273
H           0.24613697072644    1.24712383110246   -2.14332698824551
H           1.62485203479984    1.07644169063654   -1.44429139859019
O          -1.21499414940379   -0.07153343430578   -2.12107578396171
H          -2.28272124213023    0.38803128580978   -0.90076868839815
H          -1.41295677482053   -0.68627911106623   -2.82913035799219
H          -0.68359050677789   -0.59231654664921   -1.45258055937859
N          -0.34093563692558    1.90545747976272    0.63416486444624
H          -0.07325213065591    1.00167922945536    1.16806214911387
H           0.20760979546487    1.90960568100130   -0.30455581520926
H          -1.34542940836979    1.83849864388175    0.45076221473833
H          -0.12119957442301    2.72194156467264    1.19387220035677
