    26
        -50.44422652  Gyration_radius:  2.53743047995 Dipole_moment: 7.772
 S          -1.68022210867083    1.57380110582488   -0.82446150194936
O          -1.62364730522403    1.43378428697922    0.61219180023196
O          -1.93287413296002    2.86506833607521   -1.34743627013652
O          -0.32499007956613    1.02520729894814   -1.39593636097188
O          -2.65690404178652    0.53603930365899   -1.39722959978830
H          -2.79817617919314   -0.16901675527948   -0.67947992843398
H           0.41129102342088    1.62017292403714   -1.07025728250973
O          -0.54045275844377   -2.27584420085272    1.14386287493415
H          -0.62525262824988   -2.86206009393318    1.89717393834343
O           2.66735374927332    0.07288676679051    0.40530808571886
H           3.41714715701785   -0.39473966749716    0.77405336272651
O          -2.84394461455228   -0.97114592542614    0.63497674411898
H          -2.06781234188470   -1.56911729798094    0.71816382575647
H          -2.61524023105014   -0.18044281007944    1.14514711349247
O           1.68237449541629    2.38544881919958   -0.51921473910281
H           2.17757116997206    1.64433865735472   -0.11564308947225
H           2.22362105047338    2.73684602983641   -1.22901524979437
O           0.31600280062510    0.06836501848132    1.93608473644190
H          -0.17459672555292   -1.41767744922456    1.49881470579398
H           1.16267640606505    0.23587612348057    1.49231997207455
H          -0.33108100479074    0.68175026893435    1.54276584768278
N           1.20776341034168   -1.50288586739887   -1.12477289213819
H           0.59258303934204   -0.80160891846283   -1.52727974942477
H           0.63926545697144   -2.06429492043212   -0.49657074514408
H           1.53500245664816   -2.10124930607196   -1.87222065057300
H           2.18254194636107   -0.56950172696390   -0.20134493787753
