    26
        -50.46944706  Gyration_radius:  2.53889670597 Dipole_moment: 4.913
 S          -1.21495556775623   -0.96542284093736    0.50773867617734
O          -1.45590270082512    0.43890650338033    0.13225075648701
O          -1.71737312104659   -1.88752978414011   -0.47659300307640
O           0.22028775456108   -1.16122215758923    0.75502398869090
O          -1.95391071090164   -1.21909426254476    1.84901288917528
H          -1.81943631237424   -0.37754801766494    2.35621756701793
H          -1.17148824877420   -2.35488826086247   -3.39493587370646
O          -1.64393521704749   -1.58296183796246   -3.07752485074556
H          -1.81657686903527   -1.75681665791053   -2.12117645321843
O           2.61894137077553    1.71755528805234    0.41281545583712
H           3.51904615559638    1.88034391604324    0.69830563504697
O          -1.33942654616429    1.16391544728068    2.68957525563195
H          -0.37689289031246    1.11737409604103    2.81766183926110
H          -1.46346241919212    1.32226050004479    1.73879419282335
O           1.83541874261525   -0.32053007188107   -1.19804378115810
H           2.23881535446686    0.43565056266065   -0.72553560208733
H           1.33075618421346   -0.79987598126684   -0.50697981942063
O           1.30666925753330    0.43883334193967    2.44709059018217
H           1.75619532131280   -0.10239907236062    3.09839034292409
H           2.13264975348120    1.38673085357344    1.19286078981492
H           0.89354108519326   -0.20182355615312    1.80125088743579
N          -0.37446440150337    0.59292211893845   -2.23012907059802
H          -0.38296807327251    1.47274680998355   -2.73365779331551
H           0.61578307365260    0.27744673249587   -1.96303807524138
H          -0.89011655509141    0.66340240339834   -1.30390113501611
H          -0.84719440008909   -0.17797605251249   -2.76547340895886
