    26
        -50.45993534  Gyration_radius:  2.82267614776 Dipole_moment: 3.734
 S          -1.80302651282249   -1.27767045698712   -1.93958636240709
O          -0.44863423150079   -1.17731571594528   -2.48336115045867
O          -2.42470942945981    0.03431669572999   -1.83305183605859
O          -2.64474494702068   -2.08715322323046   -3.01354159694421
O          -1.85773624636522   -2.04121138381554   -0.71349737737260
H          -0.87753046617767   -1.93983629263382    0.53519042791344
H          -2.56293514452459   -1.53512189866503   -3.78502674739666
O          -0.17463894043416   -1.83486124636963    1.23092313362081
H          -0.00898696982559   -2.71469378142349    1.57135302813035
O           2.06768087106079    1.47554111545392    2.32329501879774
H           2.08708894927920    2.30334539871839    2.80427836076061
O          -1.31992423726541    1.63009095484289   -0.15210717650203
H          -1.82623340004963    1.01309621882417   -0.75281535558774
H          -1.54660466363673    2.51552793739690   -0.43994388703460
O           3.23141424532404    1.09225136212821   -0.05295234083782
H           4.04999325843566    0.61693226714746    0.09389402912724
H           2.87806087709628    1.31569911574733    0.83770626316582
O          -0.48340307138259    0.68787914523446    2.33617972263158
H          -0.49255205348411   -0.26479778118949    2.15577093493815
H           1.13212003568190    1.16114014739104    2.36781282730744
H          -0.95536668442733    1.09619062403786    1.59487175733875
N           0.82148246566744   -0.01103273384380   -0.54300036977970
H           1.80051826794128    0.34121097209927   -0.57902238094322
H           0.47356079075633   -0.47811371263759   -1.42889404180038
H           0.71215030590546   -0.69890092490972    0.22211844598318
H           0.17295694122294    0.77748718691176   -0.35659334659538
