    26
        -50.46917229  Gyration_radius:  2.43961785824 Dipole_moment: 3.397
 S           0.44493553301927   -0.08887040670475   -0.77704053691800
O           0.06542151854287    1.18113622213273   -1.63688994685502
O          -0.57847211524893   -0.15630286148268    0.26350437039119
O           0.45636800628587   -1.25045188129369   -1.62927395411491
O           1.76192609135298    0.22363877092683   -0.22326071801145
O          -1.74582919069725   -1.72512185828510   -3.02364215844818
H          -1.49232575625044   -1.76271441761790   -3.94726147163601
H          -0.90787382762632   -1.68083078540495   -2.51393475588378
O           1.69620432491100   -2.25178112847850    0.88493947557546
H           1.93719421032317   -1.42543153979113    0.43872881438489
H           1.24663994268797   -2.76958920500843    0.21303446296938
O           0.12963042241709   -0.94129058581053    2.70257835187388
H          -0.40750747281729   -0.76454092891150    1.90527213174552
H           0.76286702380354   -1.61124830862588    2.38687529851810
O          -0.48350569752350    2.68445705955539    0.65170205992452
H          -0.16557640164646    2.34671845738103   -0.20168483788775
H          -1.36304344984434    2.31205342034184    0.75820089083325
O          -2.39150112729140    0.46669869025257   -1.64110922775151
H          -2.14775036506392    0.09939924439204   -0.77720523932983
H          -0.91167637788081    1.04263850677534   -1.82680137173354
H          -2.40576067465508   -0.30587096516272   -2.24590974066234
N           1.31884917311258    1.30035518861048    2.08602585191558
H           2.04396390311824    1.73248386682335    2.64744103071723
H           0.86227742852218    0.45245417067200    2.55701598226159
H           0.58654294059751    1.98056972102881    1.78196942160175
H           1.68800191784892    0.91144156367874    1.16672582651738
