    26
        -50.46731822  Gyration_radius:  2.49198728157 Dipole_moment: 3.582
 S           0.25818414334834    1.48771622961217   -1.33948582713908
O          -0.75070458657040    1.81583800936265   -0.33634002801333
O          -0.18569076048499    1.63060572329405   -2.69482506852482
O           1.42517222546031    2.57973216711551   -1.13510263566758
O           0.90831494312250    0.22325375761618   -1.03222015882553
H           1.87703372331200    0.69265367627140    0.21945593519412
H           1.17190056123718    3.26600585104542   -1.74411378441407
O          -2.37666770106939   -2.05947080856621   -0.33195296823550
H          -3.30082234007158   -2.07291294897445   -0.07721834912629
O           2.37326385151785    0.89211495386955    1.04506766920202
H           2.74674320496051    1.76344428955847    0.90254665200855
O           1.92148671887861   -1.92778487302025    0.20131006016569
H           2.53814192283848   -1.38027240901852    0.69980748737421
H           1.60226569415229   -1.34481607243129   -0.51000772051730
O          -0.16275329152827    0.80652315641741    2.01904234589769
H          -0.49354322604965    1.25241490359919    1.20524789873497
H           0.80725716302993    0.89640658500278    1.95436098446910
O          -2.28803840388374    0.17354823114153   -1.73540131591474
H          -1.77800636595208    0.35934806768880   -2.53261806372725
H          -2.28807290363686   -1.29112827520255   -0.94738272118729
H          -1.94760711806305    0.83073516625134   -1.10263343875600
N          -0.42046550237642   -1.73635756131380    1.46972832077964
H          -1.19721328984389   -1.88933841138597    0.77799411792646
H           0.49842133283849   -1.94692919240962    0.99408731804974
H          -0.39002997216699   -0.69551629621602    1.74578931950082
H          -0.54857003299036   -2.32581393931344    2.28486397072053
