    26
        -50.45775470  Gyration_radius:  2.46338570766 Dipole_moment: 7.714
 S           1.52093096932475   -1.68573603314785    0.79457947411354
O           2.26450965908648   -0.83906182605815   -0.14947422350437
O           2.19965508957239   -1.94609154151982    2.01561414982231
O           0.18461061000992   -1.07182481772903    1.00876630625996
O           1.25172636582875   -3.03891691419041    0.04724983361659
H           0.83000639855862   -2.77460773390393   -0.77876965546148
H           0.13016494692445    0.36942289217642    1.67710993090466
O          -0.63863477966232    1.40629687910150   -1.98591676639810
H          -1.03894908358577    1.98920913722419   -2.63156019160370
O           0.13838399541257    1.32764230061360    1.94928268610720
H           0.40856878391199    1.33350181766736    2.86850843940062
O          -0.34245876129092   -1.42252949380177   -1.55965767620671
H          -0.35219187661052   -0.58852079642945   -2.04387431408859
H          -0.20173588233738   -1.17741926991007   -0.62756280752267
O          -2.49480422429535   -1.26656391263197    0.49680640130768
H          -1.63106876968889   -1.36146151545236    0.92993515364401
H          -2.38930308099704   -1.68055199122574   -0.36584099022477
O          -2.09684334757525    1.37003504370336    0.15939112338154
H          -1.50293911066566    1.53454693446591    0.90357747575500
H          -1.26672814801341    1.38323557376417   -1.20157608243422
H          -2.41359410401619    0.44691413745790    0.28570265464877
N           1.49790216619635    1.57368420866984   -0.36762277924130
H           1.05178249584548    1.74935141010316    0.55515036253289
H           1.87525476358833    0.54340399791288   -0.31323200205187
H           0.76220885421948    1.60393690649481   -1.10987187934955
H           2.25354609023780    2.22210460661571   -0.55671463341930
