    26
        -50.46917240  Gyration_radius:  2.43969229121 Dipole_moment: 3.392
 S          -0.12242804981943   -0.88555246762229    0.10238724954037
O          -1.37981010201803   -1.55546184778106    0.31681361713072
O           0.90222811149891   -1.33722399964286    1.21696217002459
O           0.51629269066357   -1.26380845851582   -1.15771183376164
O          -0.21833977846709    0.56516517873432    0.24724486629443
O          -2.47978438237295   -1.28951462737347    2.71233897508011
H          -2.19661631775249   -1.40606391780822    1.77945574204639
H          -2.61629821698199   -2.17236783186769    3.05993756335661
O           2.61265924726522    0.79356748753112    0.63989637705383
H           2.21272431520541   -0.07233798756944    0.82342827489167
H           2.09883122023144    1.42252351566970    1.15385057065380
O          -0.46363926121501    2.05379562817986   -1.94161031092829
H          -1.04272252251945    1.41927210131640   -2.40158520982307
H          -0.51870243432898    1.75620082658440   -1.01218005176714
O          -1.72218899052696   -0.33412903307136   -2.37669078817257
H          -2.41510161890541   -0.58255306815755   -1.76039276362691
H          -0.94565498735829   -0.83950011391237   -2.09097110784869
O          -0.25803133576374    0.17772177123657    2.92169442094020
H          -0.43163360895148    0.71076510512021    2.13025094419531
H          -1.10494376087094   -0.28345857186233    3.10280747393592
H           0.55258245523461   -0.88438903563513    2.04313568576019
N           1.83781155702601    0.81971003948936   -1.93298689405849
H           2.48167249024202    0.81160746305288   -2.71600185913717
H           2.31118071552130    1.02708666671680   -1.02498804666785
H           1.00329525709620    1.47784758467712   -2.07295682846351
H           1.38661730784842   -0.12890240749512   -1.76212823664524
