    26
        -50.46208156  Gyration_radius:  2.50512747679 Dipole_moment: 2.753
 S           0.83645492033162    1.69913314231622   -0.81413460359150
O           1.78077457625088    1.92908477255856    0.25143346348931
O           0.97355088207933    0.37614499194235   -1.41791780838941
O          -0.54867576683445    1.95225361994973   -0.44528895728487
O           1.18627609339859    2.75073496793479   -1.94576097091848
H           2.12766821736822    2.82635887417768   -1.83291663408300
H          -0.90577067962965    1.76070054049052    1.16949202825261
O           0.48089939925669   -2.46832199082392    0.97624429105076
H           0.31060852220412   -2.99915571340247    1.75498300603181
O          -1.16620129010938    1.48672857626829    2.07804890760715
H          -0.99520219909973    2.24288811118312    2.64145937981785
O          -2.77403347585636    0.45644366495840   -0.13414038415510
H          -2.16009166467077    1.14875880458628   -0.44300936029266
H          -2.76360861094477    0.54546000859526    0.82568864950849
O           1.53050489934648   -2.39552952379762   -1.77731807900837
H           1.54548110506898   -2.63056094257752   -0.84382295079701
H           1.64248887027157   -1.43811042773977   -1.80648306058445
O           1.07125997395464   -0.08191804844931    1.85046576638424
H           1.50570239242951    0.58470770495943    1.28557328875504
H           0.24064672020705    0.34043066593063    2.13234694687713
H           0.80349479533936   -1.58697312575601    1.30721076092141
N          -0.97282966680053   -1.31660303728847   -0.96679882638575
H          -1.15150221925992   -1.89749122726612   -1.78050331044519
H          -0.21690035639688   -0.60910594491996   -1.21456922301872
H          -1.81784226833570   -0.77693539803592   -0.64861884553498
H          -0.56315320421756   -1.89912307736488   -0.20166344706835
