    26
        -50.45991302  Gyration_radius:  2.6228682714 Dipole_moment: 5.303
 S           0.88137886332796   -0.49836577983012    0.20820815683423
O           1.07377936483263   -0.77181528247867    1.63135351134278
O           2.09328525589131   -1.08029500385512   -0.54774811640664
O          -0.31500666988948   -1.20850394657054   -0.27579369087638
O           0.79238687766475    0.93022720121538   -0.07414373195869
O          -2.58444360196230    0.06483172755469    2.64033386379271
H          -3.15389479471583    0.43711866098341    1.96444846988360
H          -1.78375381674247    0.64920525402683    2.67666037920565
O          -0.99692541959104    0.76862410625738   -2.03265525457243
H          -0.39247647381756    1.04066726768574   -1.31542463561627
H          -1.16458897801574   -0.15776791810443   -1.82252946634946
O          -0.29400591252713    1.36523060403209    2.42456242180102
H           0.33445599343067    0.62080536866024    2.36238363220838
H          -0.15269788343654    1.83097612566113    1.59262150124530
O           0.88001123271234    0.81656883560069   -3.94602895152955
H           0.10721580501479    0.77963501233047   -3.33647102977882
H           0.74163780462825    1.57757314088169   -4.51181711947144
O           2.71310402699096    0.93861302887530   -1.98271944028010
H           2.15741218338385    1.42665345266417   -1.35802418604897
H           2.45907946731595   -0.37145232787998   -1.16763348329520
H           2.17757167458560    0.85188922013676   -2.80362512795399
N          -1.14664578061829   -2.04630360958112    1.96298184080471
H          -1.84401136232129   -1.32971792400505    2.31223541117654
H          -0.99833917930154   -1.87441761037266    0.91037825028860
H          -0.19660388106224   -1.75946420056080    2.28310074236393
H          -1.38792478578007   -3.00051539333811    2.20534604314954
