    26
        -50.46580328  Gyration_radius:  2.55591046002 Dipole_moment: 3.586
 S           1.33897532668573   -0.01741828026983   -1.76360102766579
O          -0.01781014036411    0.19007313511002   -2.25687797250386
O           1.48435923923327    0.50050698598903   -0.41244711987669
O           1.79805926789699   -1.37748347447772   -1.93203638314676
O           2.29209710315973    0.87152638463517   -2.67138164986139
H           2.51890838955250    0.24937631311175   -3.35366138246994
H           0.94162926869613   -2.53272833551787   -1.10310516901909
O          -2.21174948434851   -0.61010266650513    0.94270386088621
H          -2.57527169378134   -1.36164949003699    0.47185534535461
O           0.50219730998945   -3.15662372467312   -0.48043706318462
H           1.09679968419271   -3.90471392222065   -0.40237671258566
O          -0.36902277860783    0.91223723418504    2.99600454485300
H          -1.30785360906076    0.71573420595812    2.94570262483629
H           0.08035762123689    0.11935968249192    2.66896553477077
O           0.34416812238229    2.53846962070159    0.93934179595097
H           0.17097826150465    2.11615346269391    1.80675994784767
H           1.01224189928584    1.97468435802688    0.50943111552143
O           0.33489115836145   -1.16459553746288    1.28684779748432
H           0.83195619635510   -0.54256351865021    0.71237143192937
H          -1.26273088724778   -0.85058328770623    1.12942856459150
H           0.39627930360560   -2.02201161905201    0.81596555404278
N          -1.50699349459763    1.48817726174915   -0.57622545249763
H          -2.20741411805417    2.08498057146465   -1.00074076632941
H          -0.91884999650762    1.00000817904306   -1.32150179394207
H          -0.82544621886538    2.04437839175205    0.03975841087315
H          -1.94075571073109    0.73480805968852    0.00925597413384
