    26
        -50.45002660  Gyration_radius:  2.51434907348 Dipole_moment: 6.065
 S          -1.68503764003867   -1.09218918913140   -1.61051688932194
O          -2.20357891830713    0.04864864693469   -0.89271189584866
O          -2.28806398160749   -1.39877045504833   -2.85389858450006
O          -0.14802557841305   -0.90903394669479   -1.76107323353355
O          -1.75315812163093   -2.32903311760518   -0.68139394999227
H          -1.34835798849331   -2.02335503023034    0.17410865814806
H           0.15292199501791    0.07304757888224   -1.71156500223084
O          -0.49595489418079   -1.53955477733109    1.45171111730239
H          -0.54817628005595   -2.18511194265436    2.15896103932191
O           2.21785333396131    1.24430660889667    0.72525165901065
H           2.71951718781339    2.00829427999093    1.01209737014375
O          -1.46862505152900    2.39966846869769   -0.08487876146420
H          -2.15684437099100    3.04560239267697   -0.24897646978126
H          -1.83725856093875    1.52702186905983   -0.36132137985364
O           0.68165458234230    1.46732413370950   -1.49593399085029
H          -0.05059745610988    1.96709579322228   -1.09098136308337
H           1.35553330799508    1.37808581077603   -0.78817768269506
O          -0.09232303313279    1.17334109171298    1.98110787594523
H          -0.64746238052079    1.70961575506456    1.39223614771586
H          -0.39273236004598    0.25740494405427    1.86522867941703
H           1.39654753471396    1.22217658783949    1.28773374174867
N           1.83322942442079   -1.64758569251845    0.29102131884710
H           2.27337671933901   -0.74347915604170    0.43665999183316
H           1.51374090146495   -1.67650427874453   -0.67197801378690
H           2.52965298687864   -2.36898495988689    0.42337778675529
H           0.44216866204431   -1.60803140564846    1.05391185075115
