    26
        -50.46580299  Gyration_radius:  2.55577883572 Dipole_moment: 3.571
 S          -1.28218301413842    1.33537558280237    1.21580574294898
O          -1.05135644053852    0.12403639632612    1.99439388780399
O          -0.17636090351253    1.58350984088460    0.30423928813867
O          -2.58566658378432    1.36560606149593    0.59214740105231
O          -1.27344738159874    2.54496224895113    2.24537492973796
H          -2.20002380220255    2.61280231981729    2.44750713638639
H          -2.86923701506527    0.15842264551553   -0.51201904348196
O           0.55257054637821   -2.32826358697048   -0.66952392763426
H          -0.21712355346915   -2.89196747813434   -0.57774871718096
O          -2.93526875813309   -0.47856872071760   -1.26017753747650
H          -3.64579854049690   -0.15205924746545   -1.81504352152280
O           2.42997540726571   -0.18123287987496   -2.00096234726775
H           1.50448424250056    0.01255298300909   -2.20928410212259
H           2.47172856939882   -1.13219455141726   -1.87279550556876
O           2.47124922632897    1.07614473002011    0.40763318695087
H           1.62261767359291    1.55211764637750    0.35766720585207
H           2.63609701241253    0.74864161813371   -0.50141631318567
O          -0.33683486761787   -0.09358771194052   -1.73094493726024
H           0.22455917220862   -1.50789190400933   -1.13072956194067
H          -1.29765510564562   -0.28247137039932   -1.77122326473339
H          -0.25997960939734    0.59422340380225   -1.03444893385521
N           1.26108472268989   -0.95219278982266    1.52398213430844
H           0.32359553158936   -0.51687582363157    1.79100861557370
H           1.07258051198316   -1.62002728036455    0.73855340001611
H           1.87543736967172   -0.15504585960639    1.14896732621429
H           1.68495559954623   -1.41601628280421    2.31903746823962
