    26
        -50.46392463  Gyration_radius:  2.61102002298 Dipole_moment: 2.910
 S           2.22411682162512   -0.28723030828838   -0.76033967834100
O           1.50962276819520   -1.55594347910707   -0.69460549640950
O           1.39764481130260    0.78662493460601   -1.27425270264617
O           2.85533402769192    0.03820345232696    0.50635308055255
O           3.38753546233531   -0.48679906573154   -1.81534657320491
H           3.87732291859917   -1.20922533776632   -1.43621726432838
H           1.81742283102322    0.36257776491174    1.66868256690447
O          -2.10394142505387    0.71711430039266   -0.34637664492266
H          -1.82483563071381    0.57523647889802   -1.27733677562633
O           1.10146750008619    0.50772923874138    2.34469784919864
H           1.54524607386107    0.55992401088680    3.19238878617222
O          -3.27218516073334   -1.52425514893489    1.01215600924543
H          -3.18297571545939   -0.68066437738366    0.54592664458585
H          -4.17634588478776   -1.81206704019621    0.88408287645988
O          -0.81694791979059    0.32717040618919   -2.65358174439272
H           0.05161661155183    0.41119710379671   -2.20356666524282
H          -0.80801640486339    0.97502039435263   -3.35993867624861
O          -0.08953467096160    2.25902525066483    0.45600033465939
H          -1.55799887642982    1.47590252273550   -0.03639991320097
H           0.24704958616823    1.91226573346197    1.29254076189441
H           0.51467415415749    1.90581664882239   -0.22196508286978
N          -0.53761345812051   -1.07167203215106    0.84705263809684
H          -0.07435743449932   -0.58849088144461    1.63536271073229
H          -1.14317214429853   -1.82749852940453    1.16499579176555
H          -1.16357377733399   -0.37245020004609    0.34323785945264
H           0.22244492644891   -1.39751186032281    0.18644930771947
