    26
        -50.45316417  Gyration_radius:  2.76352520097 Dipole_moment: 6.496
 S          -2.74260550130050   -1.13444864385589   -0.62038639949401
O          -2.36520120541498   -0.16071104532185   -1.64647725131108
O          -4.14382165898827   -1.26274188862295   -0.39221629289172
O          -2.26605859872550   -2.56583506653592   -1.22396192077433
O          -1.90489872638005   -0.97341459317985    0.56672021977676
H          -0.53738962275136   -1.78901853794855    0.20366766606179
H          -3.09268108101154   -2.89523451296625   -1.56043961127302
O           0.31350922123603   -2.11713716906095   -0.18178909826796
H           0.06323821303432   -2.89086915284648   -0.69008306593376
O          -0.31845728902375    0.97176879969430    1.52225832754024
H          -1.07046643004266    0.35929698915456    1.42771891006047
O           1.21340619002470    3.11658333516112    0.84255626343216
H           1.52481724339993    3.61248919150526    1.60120340579110
H           0.51452125121004    2.52520476078644    1.17384466404962
O           2.68507679468855    1.24290366512394   -0.44563537547075
H           2.21607218002939    1.99218184435937   -0.02051909233075
H           3.60960044714737    1.48917932980037   -0.48512622848257
O           1.87386017588688   -0.54841410337337    1.54334389795205
H           1.50614977329317   -1.33039815628043    1.11057787926789
H           2.30979998896736   -0.03601344646094    0.84106239255316
H           0.44596732794311    0.40548271821822    1.78435659303493
N           0.05512955330867    0.41808235908198   -1.09739651117847
H          -0.95771797871943    0.26378399680446   -1.44709270119871
H           0.63477546494973    0.99524976491140   -1.69854415840599
H          -0.02950736908069    0.83855298075645   -0.13914039327539
H           0.46288164610044   -0.52652339869266   -0.96850212910441
