    26
        -50.44514606  Gyration_radius:  2.69989133332 Dipole_moment: 6.289
 S           0.82045196542478    2.46269632440422    1.64610244144972
O           1.50830825580379    1.32162990448260    1.07442601801505
O           1.61484987404893    3.55146075904121    2.06236624889249
O          -0.24304364570891    2.94403263463340    0.65008010355273
O          -0.01595767134800    1.93442229131335    2.86894832664991
H          -0.29132283815847    1.02107452054518    2.71473889065918
H          -0.84731828160047    2.16587550193354    0.35110881336320
O          -0.46442019438815    0.16998677629560   -2.35751694778455
H          -0.29379579012873    0.81799294333987   -3.04110853062292
O           0.13001609100093   -2.78193380345145    0.17727703410963
H          -0.01112097115754   -3.68819788904967    0.45360632206689
O          -1.59475730955963    0.92223374145140   -0.03721553618311
H          -1.23671977153909    0.69968273729331   -0.92499400723490
H          -1.21450947590612    0.26337007689841    0.58838894446495
O          -0.20130425365063   -0.56023097100363    1.67587017922693
H           0.60421985976690   -0.06025348262131    1.43620729906614
H          -0.07460086874786   -1.45090480016897    1.28954946051568
O          -1.88388466597965   -1.96093911493355   -1.39340301408617
H          -2.54322400940509   -1.47255084226105   -0.89370116975177
H          -1.44156427353512   -1.30531829066070   -1.95858376741792
H          -0.60159155225884   -2.56395004671817   -0.44626350245284
N           1.76088675807739   -0.51605336051870   -1.16471199452331
H           0.43236405320704   -0.09440182932581   -1.96533451716096
H           2.63795981352358   -0.60967235746666   -1.65991308876009
H           1.88382987852540    0.18971621024362   -0.44160994157332
H           1.56624904369248   -1.39976766372700   -0.70431405448389
