    26
        -50.44244533  Gyration_radius:  2.56271468406 Dipole_moment: 6.894
 S          -2.68541092744624   -0.22049688993830    0.27784626388685
O          -2.79064792621149   -0.15263651992107   -1.15156779525021
O          -3.77027091946550    0.22632134243146    1.06839578467981
O          -2.32549348279978   -1.66904478762722    0.70655216484721
O          -1.38085859335318    0.56545835371817    0.67888347995479
H          -1.01992860852903    0.91158310763485   -0.20619057372257
H          -1.52022408358565   -1.95363125301408    0.19881166067795
O          -0.02094224119203   -2.34259722497051   -0.31394000683351
H           0.11139229681692   -3.28957120977383   -0.24525060509781
O          -0.66980419820240    1.34657886788670   -1.63705042736261
H          -1.49610245941081    0.94145600661278   -1.94729419122057
O           2.60770958502366    0.89323188798446    0.15810669922948
H           1.95351938031567    1.62342288359708    0.25542935137397
H           3.42973738094720    1.30619991844373   -0.11022926230523
O           0.69136457453650    2.77132850025531    0.31495695458294
H           0.25604499685445    2.63586294673412   -0.53915073762741
H           0.02929456898032    2.56256579328501    0.97905676278826
O           1.25198174947147   -0.40863301508500   -1.87614221310213
H           0.06129616573677    0.71549340986901   -1.88810924172402
H           1.83620417786944   -0.05808072770966   -1.17911904106245
H           0.81776761053159   -1.18869763405155   -1.49886677211007
N           0.98871320725835   -1.02234707163909    1.69233606747450
H           0.19469587459228   -0.40850156185465    1.84326951965101
H           0.43756201303162   -1.91167156442988    0.48635842450552
H           1.75591121666283   -0.44948203857731    1.35200835722901
H           1.25648866154879   -1.42411150985933    2.58089938654305
