    26
        -50.44936914  Gyration_radius:  2.77306907725 Dipole_moment: 7.580
 S          -2.09813452229626   -1.31725942195731    1.94833237975306
O          -2.43570332888977   -1.60268682639043    0.55213552045110
O          -2.76382542002309   -2.12158598185628    2.92082398688670
O          -0.52213847910083   -1.77285904940228    2.06314611297632
O          -2.07110989600044    0.11246012952930    2.20066113333095
H          -1.51991478596547    1.28897243558175    1.33903593911437
H          -0.61525189319128   -2.41671361082361    2.75750509357688
O           1.44247344498532   -0.90701852947042    0.32827033348890
H           0.93851869328198   -1.27630240222596    1.06874749247013
O          -1.20473809150007    1.98821223034552    0.69649414200311
H          -1.82153135262152    2.71546265871250    0.78473926545156
O           1.09667419410795    1.43250519983160   -2.31600570572149
H           1.54087142580302    0.56365707509248   -2.39999161987193
H           1.49844482167918    2.00946762467840   -2.96592817944383
O           2.30957340361345   -0.99414952144641   -2.24733406975731
H           3.25710660063266   -1.11082229496751   -2.32971425647351
H           2.09339636596342   -1.17106000052145   -1.31454799595755
O           1.52928463285976    1.72586293615000    0.41730145413627
H           1.62077686526573    0.04412593336824    0.54358497241823
H           1.45372466730441    1.80656144271824   -0.54956299948501
H           0.65302284202998    1.97180790831184    0.75219502319987
N          -0.87775922447331   -0.18921504471110   -0.88110728852434
H           0.07180484976940   -0.51784165963529   -0.58859969572833
H          -1.00103319902586    0.78341725558411   -0.54000818270291
H          -0.97658443646671   -0.23450479529159   -1.88965929174497
H          -1.59794816840601   -0.81049368072273   -0.35051355432069
