    26
        -50.44244544  Gyration_radius:  2.5625569149 Dipole_moment: 6.891
 S          -2.61537946465474    0.32867216368603    0.62198199550203
O          -2.92876855776325    0.03417081699207   -0.74692840548108
O          -3.49506385611367    1.14881707149829    1.36701305610433
O          -2.39387919985511   -0.99505898990404    1.40317901321520
O          -1.17026770484172    0.95460104489066    0.63645288443734
H          -0.90611648814291    0.98685528407741   -0.34471729681745
H          -1.72205548654866   -1.53839774997492    0.91250805686232
O          -0.72365995683852    0.96135521699702   -1.86947995254329
H          -1.63499160193060    0.63808010192710   -1.95915237265172
O          -0.38611571751877   -2.30239390473667    0.37082155731822
H          -0.37486558466857   -3.20576968874648    0.69143456229776
O           2.69718951252437    0.43887681600089   -0.39016761798043
H           2.17079300095352    1.27057016263813   -0.43326032838881
H           3.51629342532019    0.61790412436202   -0.85420320858325
O           1.10018101208655    2.59376260886487   -0.56436301969750
H           0.52516563701779    2.68320241227410    0.20010165807641
H           0.52548316686691    2.31595101225722   -1.29229311482077
O           0.88240255109533   -1.09990065413783   -1.80764812892654
H           0.40933285223000   -1.66535225295459   -1.17848077634864
H          -0.13226608000554    0.16978888751374   -2.00888361608852
H           1.60843320371075   -0.68402740587907   -1.30769437922573
N           1.08872167846349   -0.69446088055014    1.79454822829968
H           0.24366952720518   -1.76159663986092    0.96012289509696
H           1.86493565030543   -0.37324046292098    1.22277414977063
H           0.41784826775637    0.06498609747966    1.85071264139068
H           1.43298019331804   -0.88739518180546    2.72562153917381
