    26
        -50.44936910  Gyration_radius:  2.77293680622 Dipole_moment: 7.574
 S           2.49827789344674   -1.73629042386420    0.82091284561193
O           1.43216974029860   -1.85837277657494    1.81770571849320
O           3.53343268841659   -2.71489966779899    0.90179723231576
O           1.73810976810788   -2.07422407188752   -0.59774411256852
O           2.92331438928509   -0.35578878622219    0.67280068951802
H           2.10146268152067    0.96902283597546    0.63935066460761
H           2.27143053008605   -2.81492468032261   -0.86671587536020
O           1.50752577878957    1.77203982887286    0.69646009284556
H           2.00491460946436    2.42562916800289    1.18892921239117
O          -0.58080423779280   -0.81962756395708   -1.41436804387251
H           0.24324106183581   -1.32568176715361   -1.35515346956090
O          -2.29539037948622    1.81446121136162    0.23037926340702
H          -2.72509496702357    1.00495186854749   -0.11528120316189
H          -2.95883678449982    2.50462151218526    0.21421417826943
O          -3.22284342806041   -0.48858766967147   -0.86470902290844
H          -3.78172242810797   -0.51111401967815   -1.64278525891875
H          -2.34733209879737   -0.80634824878988   -1.14871990534504
O          -0.13501820194511    1.77603726749225   -1.52327005037018
H           0.62632959139474    1.90247369683318   -0.93618234374830
H          -0.33630697521013    0.10554976306042   -1.67326937321757
H          -0.90869761987152    1.97792567628956   -0.96846911207089
N          -0.34268933760162   -0.14084250855456    1.20180907572988
H          -1.16078404101538   -0.05841847840949    1.79588440967778
H           0.16283077962296    0.76369658666365    1.13988489466539
H           0.37040061814832   -0.88527089920000    1.55330140238578
H          -0.61791965099503   -0.42601783323862    0.23323809119178
