    26
        -50.44406989  Gyration_radius:  2.49971382498 Dipole_moment: 6.102
 S           1.03209005207415    0.06907423714490    2.29425666073451
O           0.48584588214624    1.26079619585064    1.70885295405239
O           1.13536569036860    0.00160286964187    3.70385406751742
O           0.22426130484444   -1.15548158090986    1.74527373960237
O           2.42277636310319   -0.20383725245202    1.65804487413567
H           2.31329131539329   -0.02515442471305    0.69420155810085
H          -0.70755198415386   -0.90054038217481    1.43357793986144
O          -0.11654507944104    1.10200983399321   -2.04129014512479
H          -0.13981805925544    1.70777784560552   -2.78253523602814
O          -2.11139720889777   -0.77465368023769    0.79537908744903
H          -2.63341841228618   -1.51480443303990    1.11147143112814
O           2.14077732906471    0.21944923570372   -0.93037021939439
H           2.81989778308534    0.84078482311053   -1.19865822987487
H           1.28739820113625    0.56027686156664   -1.29533968366288
O           1.04638904988188   -2.39032223605839   -0.64456507984939
H           1.67172458278506   -1.70508800084951   -0.90938682267333
H           0.87998147054655   -2.24246857393052    0.29624295644265
O          -1.27287013763030   -1.37149086231584   -1.58073968501287
H          -0.48184125632797   -1.90652580789800   -1.35551884550620
H          -1.86697771894895   -0.99386713029525   -0.15838436629129
H          -0.92162878645342   -0.53514139913680   -1.92704769435191
N          -1.52930965516346    2.06622244015967   -0.08456742030482
H          -0.68458291512324    1.51552685941456   -1.30234568949494
H          -2.28226678690923    1.42591187945456    0.13940493002427
H          -0.82602259071433    1.93918801324508    0.64449453183314
H          -1.88556843309882    3.01075467917003   -0.01430562330565
