    26
        -50.47298403  Gyration_radius:  2.48784138582 Dipole_moment: 1.930
 S          -0.93640654702861   -1.59157393457140   -1.09415118935486
O          -1.49526255815469   -0.83819820330484    0.02661061874459
O          -0.34965329685797   -0.72354882841603   -2.09279201365229
O          -0.06365997150880   -2.65683135052216   -0.64413450014150
O          -2.16415272727561   -2.30218024746488   -1.80244817430356
H          -2.32366507021578   -3.04438246210568   -1.22918964538283
H           1.22272941146023   -2.13504266184485    0.16243608594847
O          -1.80170043535352    1.37873347461627   -1.30655629414206
H          -1.41556276056218    0.91971474168005   -2.06717325050382
O           1.98131613091652   -1.71878778310094    0.64763949431695
H           2.65155639901223   -2.39924994343217    0.72850035102911
O           0.06957031051513    1.99003805799214    2.43869116017599
H          -0.77666127512735    2.22089784881985    2.82474498694339
H           0.10404486711476    0.99246208114500    2.45263062755313
O           1.86042139521630    0.36826806078165   -1.09851997885941
H           1.14213850519027   -0.05534106114063   -1.61370291732962
H           2.09891888911024   -0.28920844362381   -0.42011017212208
O          -0.00113590387881   -0.60994482329649    2.23687944327855
H          -0.63660912569420   -0.73972660349661    1.50516486439097
H           0.82907698906552   -0.99021799239375    1.91292018734343
H          -1.91422458819445    0.63848087390204   -0.67172672931263
N           0.38955452026239    2.34332185219774   -0.17672936194710
H          -0.53685180910068    2.09011992773757   -0.63319062458628
H           1.08643586850063    1.60312922103243   -0.50294590610677
H           0.69560347893889    3.26880907222920   -0.45508850595495
H           0.28417930368764    2.28025912702798    0.87224146374965
