    26
        -50.44944889  Gyration_radius:  2.37682769268 Dipole_moment: 10.320
 S          -1.39400091740415    0.71631743768415   -1.31032156005271
O          -1.05927092848355    1.45980375413741   -0.09276149241370
O          -2.27223811726600    1.38898227598401   -2.19961955369635
O           0.03942588353681    0.51931754916390   -2.05217360463857
O          -1.74776506983612   -0.66790200669871   -0.99769581693614
H          -1.11017408335800   -1.59537221987421    0.11872089821180
H           0.54360551939062    1.34073429423489   -1.80582390794570
O          -0.57178305612650   -2.15654027746303    0.74466140498635
H          -1.19444811737369   -2.77671362143199    1.12643763189512
O           2.45860866465742    0.40633173903602    0.79617299945827
H           3.15740982761953    0.40483150364237    1.45097752015870
O          -2.91309070539988   -0.24199682105101    1.43723974844584
H          -2.70202209725296   -0.36324423494996    0.50007170308690
H          -2.83891556835322    0.70085693755799    1.59594210489449
O           1.25696113731437    2.43968703613123   -0.84497794473810
H           1.86349302210707    1.95093726566583   -0.26968297374452
H           0.39756385623386    2.44634327557220   -0.38192708839462
O           0.15827824628418    0.28701517836294    1.90411267286575
H          -0.38358800569013    0.79542369354619    1.25529509606096
H          -0.20733662106313   -0.60948955654750    1.86541146303823
H           1.58323956588921    0.40421440454571    1.31194086657459
N           1.40656265445772   -1.39518010739274   -0.84050509372523
H           0.81549362479736   -0.73329382527995   -1.42196182423622
H           2.00961117260893   -0.78259502329432   -0.23048753477234
H           0.74952962828406   -1.92911450074803   -0.22570346893347
H           1.95485048444227   -2.00935416054736   -1.43334226545335
