    26
        -50.44669169  Gyration_radius:  2.46384216826 Dipole_moment: 1.833
 S          -1.83386009612561    0.10964171562588    1.32847158541104
O          -0.66500009881809    0.90968134887226    1.02399915430401
O          -2.36520011750398    0.28866501799947    2.63011876662263
O          -2.89796398669709    0.33436779583614    0.25831136489474
O          -1.46172052134807   -1.38673722119023    1.08277170162913
H          -0.51330869313825   -1.57846792296159    1.29418882641670
H          -2.43965064286057    0.05053393912510   -0.60501503973049
O          -1.69103769366532   -0.48050857012705   -1.81815660236255
H          -2.20358131956294   -1.19525223102339   -2.20167134811896
O           1.87172509128856    0.65346163509733    1.61611304248588
H           0.94021134684941    0.85998249735140    1.37133868072607
O           2.27203649639056    0.48426827525252   -1.23575706616880
H           1.58902871653934    1.14946880653455   -1.48209198042449
H           2.40273341850274    0.59291047319977   -0.28619473505837
O           1.06084704002771   -1.88773098819796    1.57953002657348
H           1.51021710659766   -1.01304436293985    1.60868491361291
H           1.23260734086244   -2.32700976451553    2.41437004660354
O           0.61222117774694   -1.57827486772393   -1.30737847287584
H          -0.79663147416111   -0.88166726643141   -1.59682699336136
H           1.29571467961373   -0.86436888689293   -1.38734397513427
H           0.74980026025576   -1.97320337320835   -0.44161725943181
N           0.07464556177618    2.05072634579594   -1.57852608945732
H          -0.04147219854535    3.04194369802571   -1.74631965467974
H           2.09695201683878    1.23815691462722    2.34143475612373
H          -0.26690900127581    1.84829383403625   -0.64236526479507
H          -0.53240441959044    1.55416316784849   -2.22006839381656
