    26
        -50.46430623  Gyration_radius:  2.49903217279 Dipole_moment: 4.496
 S          -1.58628876029382    1.06073228879562   -0.73903460536977
O          -1.88781418236930   -0.11746155693718    0.05272246522073
O          -2.24740787812165    1.12568213598230   -2.00722999798537
O          -2.16646507146585    2.30650445345886    0.11407630578198
O          -0.14310066615684    1.31766340987205   -0.76922243438865
H           0.11546478933776    1.89127945306776    0.78044597713888
H          -2.91469775921811    2.58974682386350   -0.40287645100415
O           0.19920989611799    2.06696218485925    1.74305787146281
H          -0.54207851922587    2.64054496097411    1.94750294714544
O           0.51464444164939   -2.89716242794160   -1.13773125832548
H           1.01065151889919   -3.39128132407996   -1.79254448454309
O           1.82211006696187   -1.78418815103403    0.90966470555720
H           1.39419922097035   -2.29325523437478    0.18443620514586
H           2.22629804306843   -1.00299983621280    0.47754523990799
O           2.42963429658954    0.61714565382353   -0.15240330033169
H           1.56034855386555    0.86749995143384   -0.50528432860018
H           2.64936555933010    1.28975266519343    0.49552106160780
O          -0.32115270053261   -0.74559182461094   -2.54435841716932
H           0.11394393472450   -2.14446796520395   -1.61999196794192
H           0.03254597020619    0.01304924418578   -2.06239897485511
H          -1.22748097686731   -0.48720819230609   -2.74593646806910
N          -0.20991787753452   -0.59481037025601    1.98506652808976
H          -0.60484522254831   -1.04400369535506    2.80322661676249
H           0.64765488058395   -1.14660270309698    1.60344563506141
H          -0.92953845665491   -0.52736769870454    1.20649633937509
H           0.06471691866265    0.38983774459275    2.17580478034402
