    26
        -50.46706314  Gyration_radius:  2.48514266109 Dipole_moment: 3.579
 S           0.41068448922868   -1.77295552390143   -1.25305404444765
O          -0.20532064258986   -2.20061141216669   -0.00625436622178
O           1.63434809629643   -2.44125782545697   -1.57289627139389
O          -0.64754937256727   -2.14352774435053   -2.40267909834484
O           0.47450144714500   -0.31240135427961   -1.34530086611611
H          -1.06765073863188    0.18520923558340   -1.30785718708153
H          -0.45261952970391   -3.05262740841905   -2.60950562058956
O          -1.98167363598489    0.54144092770810   -1.18684866256309
H          -2.51107173896981    0.12622934226737   -1.86904149789540
O           0.78953358316240    0.54450973006024    2.53710339678831
H           1.37653154423989   -0.20501412837148    2.35801888575207
O          -1.27890878834604    2.93286086025321   -0.13981145255589
H          -1.78081446120924    2.97193213601424    0.67727523267380
H          -1.64309327940910    2.17978447808553   -0.64569765283071
O           2.09653701561446   -1.28572417879134    0.95857361367785
H           1.25765472361531   -1.72297879315492    0.73425975190510
H           2.71865795252963   -1.64246127069474    0.32020159755934
O          -1.48430119599925   -0.35589565680037    1.44776675556609
H          -1.08576564271215   -1.15006277065407    1.04163476523780
H          -0.11594697936104    0.21637002977827    2.32932440714061
H          -1.89599140926838    0.09719781983297    0.70030554693170
N           1.09939934345812    1.72116964298989    0.24140071158592
H           0.27261176749616    2.34400741796443    0.08313422439948
H           1.97408169200377    2.20063522248037    0.06323994280962
H           1.05154940016147    1.32601728083789    1.24676055284685
H           0.99461633981319    0.89815394316510   -0.40005267483776
