    26
        -50.44620161  Gyration_radius:  2.53560263306 Dipole_moment: 5.815
 S          -2.40006763403686   -0.61164570359883   -0.35292158919340
O          -1.51933184403087   -1.17043723734465   -1.35142692877612
O          -3.75569872425373   -0.43773042344550   -0.71510553573433
O          -2.32086938986322   -1.44549068727892    0.93936827859210
O          -1.75911142681638    0.74363006438399    0.11082001784455
H          -1.26614735746696    1.09258203734342   -0.70404903958945
H          -1.37990281090768   -1.48510130405145    1.29583890523709
O           0.01868112290185   -1.44187108350393    2.02977340705394
H          -0.10964124577638   -1.83573602654491    2.89521638743395
O           2.04275485646982    0.64455014178358   -1.40104930209119
H           2.80553873836939    0.56066130055098   -1.97375626372351
O           1.65564444606898    2.37153227583914    0.67067217746670
H           1.22939370100347    3.11366125051736    0.23821070323975
H           1.89065711561824    1.74156584456064   -0.03551326429714
O          -0.51416384810215    1.22499180988269   -2.04562531492116
H           0.44739761822657    1.12251693103902   -1.87807446954276
H          -0.82423899682719    0.34714059520358   -2.31411742139380
O          -0.08403332664383    1.12441932682395    2.31023054915545
H          -0.85976261140546    1.24181411945378    1.74582427977711
H           0.07642428720045   -0.44912866418998    2.18554578321110
H           0.64397314030519    1.59193747978159    1.84813630744632
N           1.19895197555053   -1.71616730227459   -0.68040938531756
H           0.23830287958976   -1.68142014230832   -1.02425329269265
H           1.78960898215303   -0.29256987044879   -1.09991894729900
H           1.13625204634932   -1.78334792638929    0.33021684386593
H           1.61938830632515   -2.57035680579073   -1.02363287574405
