    26
        -50.45480245  Gyration_radius:  2.4655941255 Dipole_moment: 8.353
 S          -1.15193893378122   -1.93583404316611   -0.23538115084977
O          -1.89117100153270   -1.10610749401291   -1.18834287052576
O          -1.66625213625071   -3.24424885008286   -0.03196261231030
O           0.31189479992910   -2.07314850394525   -0.88781488289410
O          -0.90698268104629   -1.16382478621255    1.00087478945515
H          -1.32669937689139    0.22857807647211    0.59362548771104
H           0.93005146511343   -1.55721105773789   -0.34475574141614
O           2.17118720531637   -0.43314841126674    0.27082072972215
H           3.02948898685450   -0.84685388589754    0.36483549273184
O          -1.53772639905900    1.15001666020961    0.22762760542241
H          -2.25220535686842    0.96107632570841   -0.39020852838953
O          -0.15032814763134    2.30538956785697    2.30919226856865
H          -0.76924353329623    2.03284460869080    1.61293306525579
H          -0.68224872166200    2.54108781881100    3.07088527610384
O          -0.28463928232015   -0.43433763525993   -3.05721859331713
H          -1.01842542825649   -0.71532898052899   -2.43432330444295
H           0.25820267971100   -1.22322573271646   -3.13865613434067
O           1.02076495762261   -0.17175831780928    2.54158990176495
H           0.72021402720432    0.75627463902810    2.58263899258239
H           0.24820285923326   -0.67584074844660    2.21982772738709
H           1.80165982254080   -0.31803406880644    1.20780933554824
N           0.65039599626138    1.20953032849617   -1.26325702002266
H           0.34957034199209    0.58878769216494   -2.09353265891222
H           1.37243118815730    0.70227488017147   -0.71866072517548
H           0.98954489297780    2.11543710722954   -1.56767467853607
H          -0.21574822432571    1.30760480109582   -0.65087178112137
