    26
        -50.46045287  Gyration_radius:  2.58320486685 Dipole_moment: 5.615
 S           0.87538073179629   -2.22647649827290    0.87992972933109
O          -0.10500128368143   -1.60104677659155    1.73841607225630
O           0.56219401825594   -2.07639294636398   -0.53390167319267
O           2.22986009271140   -1.79999877507536    1.20755359603283
O           0.82086991218895   -3.79346197700381    1.15539239252733
H           1.02738015720738   -3.85611166061209    2.08283836000452
H           1.94947849000472   -0.27880858231541    1.23642744804421
O          -0.72628583950590    1.25475566445452   -2.35678068462296
H          -0.62528069764275    1.43869556885071   -3.29123062629019
O           1.72597174263481    0.69818326943698    1.21379953277172
H           2.23446595932752    1.09735978492974    1.92203410216323
O          -1.72670231275805   -0.81602933102515   -0.75018591568431
H          -0.96729851501912   -1.43967312951487   -0.68946367612943
H          -1.53962069796101   -0.24366685467952   -1.51108757183180
O          -1.63945833974341    2.93729093304640   -0.45528129043020
H          -2.55489706129811    3.11184924925367   -0.67894912701283
H          -1.26817932999104    2.42367527849429   -1.20551433289659
O           1.50535969048330    0.21338602555240   -1.52372375814831
H           0.15865629199088    0.89582877255544   -2.05461429217467
H           1.80031262970418    0.61208599218110   -0.69419011194119
H           1.26519806343585   -0.70676359668666   -1.28440766368471
N          -1.00723245751325    0.85524772411159    1.13771418155958
H          -1.33828036772199    0.09339931807721    0.45048119325607
H          -1.27571589429836    1.78188300681152    0.74436106674570
H          -1.41166954872393    0.65631408110120    2.04624325879852
H           0.03049457611351    0.76847545928094    1.21413978054991
