    26
        -50.44865859  Gyration_radius:  2.47448355872 Dipole_moment: 5.856
 S          -1.75804918928355    0.01565718324037   -1.08681945941260
O          -2.09561750287768    0.93481874266195   -0.02228922899052
O          -2.82613237309904   -0.77096320980219   -1.58853925719303
O          -1.08021164378730    0.79987865795019   -2.22817099331035
O          -0.60204451276583   -0.89798737670437   -0.60993684717657
H          -0.45219961327301   -0.88127186493273    0.41528641964149
H          -0.30648150138305    1.25949279172769   -1.78897598370472
O          -0.25252718200529   -0.86223638033298    1.88757462456966
H          -1.17753215000008   -1.06743354359935    2.11350157845028
O           0.93143619041866    1.86931997573262   -0.99889308313781
H           1.25589553272743    2.63127670416778   -1.48284413873169
O          -2.91903288157780   -1.16523543736025    1.43168789135243
H          -3.31577737874072   -1.72954737739157    0.76452200131133
H          -2.88359725237162   -0.28251557846189    1.03158283067909
O           1.79632350419186   -2.15326242002970    0.33775858924069
H           1.36622872571542   -1.88533769132144    1.15889732501355
H           1.08017304030721   -2.30989591737678   -0.28480709274209
O          -0.13732430648302    1.75110393196251    1.61551972008058
H          -0.13905664487380    0.11787284567061    2.00167181130736
H           0.47791674564345    1.92913331487330    0.89133771118009
H          -1.00150154313190    1.69400333125797    1.17177949445385
N           2.89430531139364    0.15544177375603   -0.95165861236167
H           3.71282593714034    0.48729468044780   -0.45627776642078
H           1.68817639580032    1.17963205553216   -0.99144666982824
H           3.18948594772032   -0.14333153567223   -1.87295210847037
H           2.55431835447976   -0.67590763597097   -0.45750875600874
