    26
        -50.44669145  Gyration_radius:  2.46423484021 Dipole_moment: 1.859
 S          -1.75549573448532   -0.58268591590883   -1.31442413327348
O          -0.41768271944703   -0.04775775308372   -1.46705375759143
O          -2.67092328021729   -0.21923421342731   -2.33346234299763
O          -1.68247604114162   -2.09788068274823   -1.14880424492412
O          -2.28416040511565   -0.14405383455896    0.08789119042931
H          -1.93440262441286    0.74130590064990    0.36072466986499
H          -1.11314770634476   -2.22696655742107   -0.31501015626646
O          -0.32904457266899   -2.30501164270786    0.98591643600793
H          -0.85738077643394   -2.78046783843039    1.63050360376711
O           0.65175203794348    2.28574812911566   -0.95172495125739
H           0.34109800904532    1.38863715391805   -1.21384693754279
O           2.32309232105122    0.84265821065071    0.90584342927874
H           2.43097047770182    0.03592551666161    0.35152821578721
H           1.95822222242259    1.51151720931795    0.31426669518602
O          -1.31782111140367    2.17097627047846    0.84402847824016
H          -0.54662020494282    2.34927416883163    0.25977162314582
H          -1.92098648906452    2.91139302137167    0.75791459420487
O           0.14257071808613   -0.02014679164253    2.13663366608615
H           1.01967945236381    0.29542206016814    1.79860489683310
H          -0.47059235320651    0.70428639845871    1.98235244721052
H          -0.14358228374121   -1.40866474999895    1.40113347255185
N           2.09385189978090   -1.35214850526488   -0.68452350369272
H           1.26755745764513   -0.98312779541817   -1.14831484512222
H           0.74260558785573    2.78837796561271   -1.76275193194068
H           1.77594577121831   -2.10496390362751   -0.08547397957444
H           2.69697033752194   -1.75241182098440   -1.39172262440811
