    26
        -50.46283897  Gyration_radius:  2.5792836078 Dipole_moment: 4.820
 S           0.27136789118718    1.17856746579011    1.42002161920291
O          -0.17890877634015    1.54991145261385    0.08044388930950
O          -0.63519856447438    0.23674226587941    2.04915912009494
O           1.64082497810300    0.65976270598384    1.35053774679462
O           0.28786492984189    2.46689490225408    2.29755402099659
H           0.94546813579648    3.02880275543548    1.84065877848472
H           1.80358972011399   -0.82903642218993    0.75635809774289
O           1.82108574453883   -1.72414160138207    0.32653452862197
H           2.49454892780408   -2.22397299697015    0.78999354069533
O          -1.51887930701329    0.04230570333765   -1.72506720745124
H          -1.35531069377110    0.78595696102169   -1.11523499283817
O          -3.22870255212064   -2.21667008086226   -1.07042927509578
H          -2.93785643448107   -1.40658770502637   -1.50945089146008
H          -4.14245643287278   -2.35252772153744   -1.32304685728960
O           2.13688192863742    3.16303234102652    0.53894408366291
H           2.33140324462997    2.23096988410111    0.73514651871926
H           1.60107119677632    3.15550624126686   -0.25979802931563
O           1.19083120408809    0.13841707529414   -1.81620355976230
H           0.87772602658361    0.73668001783422   -1.11512821352455
H           1.66988563786841   -0.56398317349461   -1.36439108662610
H          -0.69608231978451    0.00099537007870   -2.24368607812755
N          -0.87872467712472   -1.64444557757998    0.27600836058385
H          -1.57342334055917   -2.38574116940625    0.35206747022010
H          -1.11571422401012   -1.07495218272243   -0.57966695534303
H          -0.90889162297503   -0.96455278963410    1.09324949012548
H           0.09759935959008   -1.98793371109086    0.21542587160511
