    26
        -50.45759498  Gyration_radius:  2.57343317304 Dipole_moment: 5.963
 S          -1.38449419613036   -1.94795271288796   -1.03246919268783
O          -1.68200961751515   -0.60009809598443   -1.52665203878481
O          -2.15767624930079   -2.34009759578988    0.10396848246495
O          -1.74505423937260   -2.93197696650730   -2.22930829688418
O           0.05779784340678   -2.08613526133326   -0.82292000660635
H          -0.04654541009100   -1.87664218766846    0.75940547636996
H          -1.17973088957016   -2.64376697118701   -2.94050539327673
O           0.01266565686863   -1.52784788529457    1.68646685276302
H          -0.60780749275423   -2.06943453333155    2.17896972928466
O          -0.24488534896463    2.69536279406432    0.01167387605507
H          -0.86592417063544    3.41384303222840   -0.11050854570182
O           0.56654594357292    0.71323900527144   -1.75939045115284
H           0.30014457055877    1.57506450721962   -1.39777299238629
H          -0.26085619282218    0.17124591958375   -1.76941345202649
O           1.92188733926657    2.29318472524538    1.53415422341372
H           1.19105649964650    2.61582246227823    0.96374782700250
H           1.57214907091322    2.26595502244735    2.42683078988561
O          -1.54443241503568    0.60757354613900    0.85033941826329
H          -0.77530267499697    1.92710449098887    0.37328288298306
H          -1.81766156046123    0.18160067086412    0.01436034012842
H          -1.05466185548759   -0.08348812784468    1.32888458367226
N           1.97169779058645   -0.07920083334874    0.28318730173850
H           1.40549519543479   -0.71300366980443    0.86049605054532
H           1.40287262247213    0.14377617577440   -0.62013725426151
H           2.11837000210134    0.82306915106945    0.79985307315967
H           2.84635977832554   -0.52719666219769    0.03345672603810
