    26
        -50.46624017  Gyration_radius:  2.66531202662 Dipole_moment: 1.865
 S          -1.09660436242834    0.29266083033106    1.84462781092991
O           0.32034146685653    0.54024409201587    1.55672624093219
O          -1.95333635763452    1.27247528733413    1.22672423899444
O          -1.46069796755564   -1.08314987202959    1.54818490634986
O          -1.26388549587814    0.46669930188445    3.41162394735340
H          -0.88138267559793   -0.32211861916037    3.78617455826306
H          -1.94994780772808   -0.92596663521413   -0.05684360842252
O          -2.11630088079036   -0.57371730354640   -0.95696545628412
H          -2.80411058135595    0.08648969532069   -0.83554965505628
O           2.47097740730074   -2.25390052104129   -0.98934473476627
H           3.36037289610209   -2.45823519768553   -0.69705798052435
O          -1.21304266708574    3.14269508104375   -0.53302611483939
H          -1.58636499778998    2.53127142138363    0.13692755554772
H          -0.99612627094843    3.94832793218578   -0.06230441201457
O           2.11824414812270   -0.15089193357019   -2.56640821772474
H           2.31042835153723   -0.92825221028752   -1.98729406463029
H           1.87337783057435   -0.51476836116627   -3.41870946298675
O           1.11114420705727   -1.97519397982773    1.29138067678341
H           1.92908232714909   -2.19325780322422   -0.16737321005746
H           1.05000982862187   -1.01420252693800    1.45160175594886
H           0.18627827514194   -2.25123182088521    1.27649828285961
N           0.13688278652148    0.87728660617619   -1.07512943389351
H           0.39920766292444    0.76994271745940   -0.06855165333306
H           0.92515497286355    0.59373660632571   -1.70501149542486
H          -0.70394774072232    0.26377042628927   -1.21797587794188
H          -0.16575432504470    1.85928676767249   -1.19292458550679
