    26
        -50.45759500  Gyration_radius:  2.57338015259 Dipole_moment: 5.961
 S           1.65087770781120    1.84142845533985   -0.81284096763058
O           2.24025897534581    0.55055446486931   -0.44436384538255
O           1.54815393198484    2.76979469997585    0.26916790053093
O           2.63225092105583    2.46576571032056   -1.89816115485793
O           0.37956811381722    1.62049612137578   -1.50434761116616
H          -0.50120328455381    1.95065972734821   -0.21066942120842
H           2.63489032118125    1.82229929369107   -2.60129630673061
O           0.28949133450060   -2.37126158430819    1.27209205290953
H           0.88214702783434   -2.88349341542552    1.82272972250050
O          -1.10351335751001    1.90481656788182    0.57657060211942
H          -0.93703804063484    2.72558646867399    1.04506561237292
O          -2.36902879294180   -2.15183534327710    1.03030896399207
H          -1.43032686321435   -2.41320821375803    1.14897499477878
H          -2.64121156536831   -1.75014142802208    1.85763835223290
O           0.65966386968994   -1.35377013422211   -1.28737223291589
H           0.68100066360915   -1.94748453013915   -0.51824467198653
H           1.29761341035372   -0.62933725744539   -1.07132891176308
O           0.71924542151442    0.15293939969179    1.71339927280155
H           0.01287442197426    0.78831023479550    1.50411067022076
H           0.45633242826910   -1.41108499738003    1.50136022481573
H           1.43149195982628    0.35812950684884    1.07655020815317
N          -1.73222429506993   -0.40277470609985   -0.90132423939555
H          -2.28629697031106   -0.32374106139003   -1.74680940135596
H          -0.72081765232695   -0.72277026994242   -1.15418514952459
H          -1.66416018473740    0.51267635631276   -0.43991416954676
H          -2.13003950209325   -1.10255405571729   -0.22711047396438
