    26
        -50.44669148  Gyration_radius:  2.46413923792 Dipole_moment: 1.854
 S           1.74856612237126    1.26588987343078   -0.69908886983945
O           0.32124202561468    1.40778681436671   -0.49450953968901
O           2.30294753887723    2.11118502960839   -1.69243332815834
O           2.47283179627947    1.42699439659783    0.63418987168695
O           2.03363945732420   -0.23434351429671   -1.02556773961995
H           1.29002408986553   -0.65795606014239   -1.52390509716694
H           2.08617674874893    0.68586750957454    1.21502563735325
O          -1.77375790382601    0.50107079819637   -1.77652027120312
H          -1.05693628730270    0.91988435089130   -1.24662473818360
O           1.50897213456380   -0.50425871110159    1.96546272744598
H           2.23319654342111   -1.07408478501515    2.23278428942973
O          -2.38496368324331   -0.87835675223371    0.68167202660726
H          -2.44068362260665   -0.46986317084055   -0.19040233435317
H          -2.08607802887447   -0.16097357882761    1.28648129494397
O           0.04713036966057   -1.37926130955808   -2.29312222421234
H           0.18043722896151   -1.49492330410939   -3.23564547451776
H          -0.72962815290864   -0.78713162077101   -2.17564518630047
O          -0.02187926104693   -2.06775678653001    0.55842280560980
H           0.90651475296411   -1.08218046134764    1.40576180492834
H          -0.94968700914807   -1.73585998855085    0.66868145530246
H           0.12453408013401   -2.11735801545879   -0.39058574430297
N          -1.12728123489614    1.11301129148236    2.04225454480271
H          -0.62743804603763    1.42246420844324    1.21248773641623
H          -2.14566472897970    1.19402881430313   -2.32445766934650
H          -0.44366652141812    0.66246015593519    2.63916418551932
H          -1.46854841848334    1.93366481595208    2.52611985679722
