    26
        -50.46283890  Gyration_radius:  2.57940369122 Dipole_moment: 4.826
 S           1.49297863115461    1.07192963312636   -0.32083564766687
O           1.36224621833719    0.09428605708548    0.75718075688171
O           1.34724845787502    0.45471932238116   -1.62561387803665
O           0.53004987769830    2.15840723580167   -0.11677265434814
O           2.92708766903611    1.67900886317529   -0.24958147170096
H           2.93383373858356    2.11054899756096    0.62826112627320
H          -1.00716770914281    1.81327214423313   -0.45374834783926
O          -0.17104194547337   -2.13514648028135    0.83473852317707
H           0.64538643764975   -1.60141490395002    0.84705681706307
O          -1.93392714358471    1.50157240524567   -0.62767214201774
H          -2.38546002805128    2.23971616884855   -1.03932635530018
O          -1.07882942379594   -3.61700736913507   -1.49600257772605
H          -0.72340870669101   -3.46260921319628   -0.61087122598278
H          -0.96891563186947   -4.55115781473233   -1.67660645626634
O           2.01548338806538    2.54757044481587    2.07671564703743
H           1.27368601057107    2.68082378148379    1.46263225075314
H           1.85020936569511    1.70325218516158    2.50676502540191
O          -1.14261363298851    0.18868112147099    1.84304253536626
H          -1.69028354644709    0.72326709076414    1.25882024182748
H          -0.74308662992703   -1.67263605154095    1.47235095001931
H          -0.22597646967560    0.33137930980093    1.54810895030577
N          -0.88508913076691   -0.85647027162794   -1.42676607515085
H          -0.71675715998339   -1.39214548939176   -0.53380165723786
H           0.04460043754485   -0.40104917424979   -1.67051051760384
H          -1.19482492316060   -1.52470718808744   -2.13063336693588
H          -1.55542814065679   -0.08409080476027   -1.25693044029084
