    26
        -50.47250295  Gyration_radius:  2.48746908442 Dipole_moment: 2.873
 S           1.24086834521229   -1.37763276322821   -1.30667108002396
O           2.30861348234811   -1.04284403279103   -0.37224871915837
O          -0.02644076139560   -1.58191624438375   -0.63150890989936
O           1.16446498070254   -0.43511512699936   -2.40650209234607
O           1.62774773521028   -2.77316647815822   -1.94910369303638
H           2.36909594135766   -2.52591659754658   -2.49105409619133
H           0.56793288915875    0.97681464055063   -1.97153054407830
O          -2.33193519372764    0.73357254432044    1.27126039930888
H          -3.24616441954137    0.94674664471624    1.45897113034470
O           0.13661775817784    1.82823601462336   -1.69699128700458
H           0.44635729836113    2.49192032876960   -2.31502871561376
O          -0.83406727216898   -1.48004393797255    1.94251490175666
H          -0.65619342749076   -1.76956106921213    1.02856623330616
H          -1.49689539752823   -0.77077054600896    1.85423014071704
O           0.02722828689340    2.13287242226730    1.01672017140885
H          -0.86798656615174    1.79831121950203    1.20564829226497
H           0.10534018039739    2.12285354481831    0.04392783274747
O          -2.00406984079959    0.10981639887921   -1.23638492446317
H          -1.36443954117027   -0.62263310187518   -1.12998517206096
H          -2.29185577036023    0.48749541938908    0.30155576431481
H          -1.47573336643079    0.84249802359624   -1.58576622452828
N           1.34222493201059   -0.01216762178544    1.81839318894355
H           0.52310419874959   -0.65105993889999    2.05186309837904
H           1.99794980299440    0.06720475971165    2.58687375164865
H           1.80953958564191   -0.42505356515893    0.95971051833670
H           0.92869613954951    0.92953907266085    1.55254001481060
