    26
        -50.46172031  Gyration_radius:  2.43551121556 Dipole_moment: 7.544
 S           0.98924267190904    0.44813431208404    0.61479724054959
O           0.86195669266125    1.13006365690555   -0.77490925350061
O           1.24308009842250    1.56474305304899    1.53275527571790
O          -0.33352991193202   -0.14779944259313    0.89465224085745
O           2.02251268236835   -0.54632338950388    0.60087225247833
O          -1.74543344768925   -1.47560430561740   -1.04187470233090
H          -1.40233230990271   -0.92936250484567   -0.31419742176329
H          -1.60896967617574   -2.38344085122747   -0.75542374313512
O          -2.21171670541080    1.64188885644080    1.22162246589636
H          -2.57075301643410    1.53741858635571    2.10414225531613
H          -1.56248731832118    0.90393234363754    1.10193830612232
O           0.07841738005528   -2.84570618352467    0.86467668198946
H          -0.00875034577976   -1.87938398066068    0.96121921893791
H           0.71971869120973   -3.11226782696214    1.52542146622926
O           0.38352734902136   -0.65695457542542   -2.44804314819147
H          -0.50572691670379   -0.95967067137021   -2.15897583124833
H           0.69679379989798    0.39876003837046   -1.51210049646261
O           1.84688319802401   -2.48625022112488   -1.24415914161600
H           1.17770730087843   -2.94422997450125   -0.71003754041558
H           1.00110817994881   -1.38937534562665   -2.18947655883105
H           2.20523872899730   -1.81962380591490   -0.63069555469062
N          -0.26949967663959    3.24419831551932    0.46038592947968
H          -0.19361161720712    4.23119579283471    0.68145218342690
H           0.47329045821923    2.59427058636693    1.00498681349610
H          -1.19628559669501    2.82676094326763    0.73659428806493
H          -0.09038068272573    3.05462656407298   -0.52562322637532
