    26
        -50.47250315  Gyration_radius:  2.48731466118 Dipole_moment: 2.883
 S          -1.20594729634809    0.20652505114249   -1.90969982792158
O          -0.40999727029036   -0.93422263386289   -2.34617897666936
O          -1.61915676339852    0.08172872775586   -0.52503787095674
O          -0.55684957504054    1.46891400675329   -2.20760185110435
O          -2.53583768588219    0.18079149205370   -2.77011787317260
H          -2.20184651865950    0.41146895823812   -3.63010090494616
H           0.69278533264037    1.75802787420630   -1.26224324932070
O           0.28815122192424    0.08051576858588    2.73891168852317
H           0.27090222783371    0.35818824981005    3.65494174598252
O           1.42865228359435    1.95113504115015   -0.62391831869868
H           2.02135607169697    2.55144965341041   -1.07855094744962
O          -1.24667833327365   -1.77549991499357    1.39878065318363
H          -1.64763514256044   -1.14758063746781    0.76974867042331
H          -0.78147841548421   -1.21537545955108    2.04683218497172
O           2.21231135125569   -0.24861886924101    0.79551270199502
H           1.68483524147085   -0.14427392955819    1.60793974657944
H           2.03510233180943    0.55408486698041    0.26933373506388
O          -0.69394998956472    1.92021034801324    1.17813284737796
H           0.07379446516580    2.22414941186626    0.67211346131003
H          -1.18460300626017    1.34702816747259    0.55526669689745
H          -0.12038973355815    0.82569541303983    2.20949695708271
N           0.71581066795801   -2.11911849426356   -0.31528780240494
H          -0.06761102904517   -2.17679816861952    0.40328344955260
H           1.43493633724714   -1.43903944016485    0.07088952777432
H           1.12264391369348   -3.02591468090877   -0.51295560986897
H           0.29069930304763   -1.69347080184488   -1.18949086419543
