    26
        -50.44898625  Gyration_radius:  2.5145897831 Dipole_moment: 5.471
 S          -2.00268927986186   -0.96390154375174    0.71813598202323
O          -0.83835074069709   -0.26378297943531    1.23692316778679
O          -2.55558178015901   -1.94778741247835    1.57090987372109
O          -3.05494937409695    0.09848098550119    0.35122436525035
O          -1.62312047462078   -1.61866455591379   -0.62217838629282
H          -1.00150355660115   -1.02058776852542   -1.17678188105469
H          -2.58385328732197    0.82898450724035   -0.17486946630582
O          -0.06348319773420   -0.16863854997749   -1.97849284363792
H          -0.01651066309334   -0.53910953171501   -2.86091489750398
O           0.06836219100978    2.18986178573091    1.20261559751118
H          -0.20524677724101    1.24647212295708    1.27390632732585
O          -1.63137693557624    1.79658693419880   -0.93057166676639
H          -1.06353046758378    2.18870301116601   -0.24484820643767
H          -1.04431201601612    1.21759506454875   -1.44994199148910
O           2.65559825808078    1.71490574857374    0.36156352989725
H           2.88557852066412    2.43762603547768   -0.22405870212929
H           1.76582327735447    1.91395809885029    0.70500316771022
O           0.60719770999194   -2.54131446145449    1.22515865853004
H           0.14465325359776   -1.71263656078927    1.42086586527329
H          -0.06374440713916   -3.22502571714289    1.26568998436030
H          -0.08797189767161    2.57688591373884    2.06571700739499
N           2.01533701253531   -0.87259671047933   -0.73137016246859
H           1.68658523956382   -1.54042511860464   -0.03529009325165
H           2.37836126323807   -0.05164055130279   -0.24442857475179
H           2.76897133335317   -1.29757275758567   -1.25531196293626
H           0.85975679605881   -0.44637599883144   -1.46865468174570
