    26
        -50.44898618  Gyration_radius:  2.51419876763 Dipole_moment: 5.474
 S          -2.00558328927155    1.19080872468724   -0.11815416511190
O          -0.77723005292218    1.12574378927560    0.65790972074322
O          -3.16793647115813    1.54742344376214    0.60476412317500
O          -1.76394284921092    2.16612036814523   -1.28449590302820
O          -2.23265870670438   -0.17542260327373   -0.78967742839362
H          -1.35384008585667   -0.59168292499899   -1.11577224249151
H          -0.87104154574267    1.92636317408798   -1.70640637879033
O          -0.07070167000009   -1.22460797981195   -1.56332164987683
H          -0.29407529457772   -1.96668954243500   -2.12683451335084
O           1.72710001531221    1.78377415405120    0.29001293841423
H           0.80550759572391    1.51911861373340    0.51541776844082
O           0.51058497261991    1.37060248373782   -2.14712793576183
H           0.42527330679989    0.40207048274926   -2.08066109829534
H           1.12754972596451    1.62323893611812   -1.43859634323783
O           2.93955745061411   -0.57208463201800    1.06904257944622
H           3.68554755187048   -0.69750864368116    0.48088642699654
H           2.54809916107667    0.28860626928273    0.83407033227696
O          -1.73220689532443   -0.93801064477083    2.10896227330607
H          -2.68234835391829   -0.84240542214918    2.02307248481351
H           1.89696148583941    2.59245872397835    0.77618063997114
H          -1.35701156634006   -0.11282425321305    1.76645687937093
N           0.54707964487206   -2.13520636663626    0.70817339706475
H           0.68686902072721   -3.13234461022742    0.80450268294047
H           0.23384667650549   -1.63804479605190   -0.60056538832933
H          -0.22015889705258   -1.85422715411443    1.31731971696634
H           1.39475906015491   -1.65526958022599    1.01484107272918
