    26
        -50.46283872  Gyration_radius:  2.57962917409 Dipole_moment: 4.827
 S          -1.15244821483345   -1.46721492077216    0.05424550197376
O          -1.24095938902191   -0.34669539949569   -0.87934296802944
O           0.11867016749095   -2.15785504053766   -0.05491503462174
O          -1.40263891621654   -0.98992736600105    1.41774912790695
O          -2.27121291364037   -2.48916858631151   -0.31184760270149
H          -3.08912387650319   -1.97101887358258   -0.17230504531690
H          -0.20414077466857   -0.16276228318256    2.10693227068916
O           0.73688936791237    1.27514577510505   -1.76627068563308
H           0.01379502582218    0.62280617688399   -1.82153133387252
O           0.55755696197455    0.38386784839047    2.43453360997998
H           0.64622421435715    0.17749537569394    3.36606270517293
O          -3.81048229914676   -0.45149696372370    0.37808169007168
H          -3.53609713193909    0.18835711819841   -0.28551290970628
H          -3.10479450536840   -0.45809648496135    1.04675756899822
O           3.55188974656159    0.55887574112681   -1.88665435460527
H           2.70555344572653    0.93045371794084   -2.16820329331093
H           4.13848964072142    0.60964459847303   -2.64210368217103
O          -0.72598941959041    2.01312354326900    0.39596516708867
H          -1.08039649290494    1.17686216412531    0.04567477444912
H          -0.36403875670310    1.79985880595737    1.26228429158480
H           0.35346220788042    1.97900000753162   -1.21366224765419
N           1.86170327187979   -0.24463393652749    0.15364426259791
H           2.85330362999690   -0.38107939504187   -0.03608641409994
H           1.66085384937879    0.10329231473339    1.10944034187874
H           1.49253756242055    0.43508695902127   -0.56346408426829
H           1.29139358897899   -1.13392087637376    0.03052834365956
