    26
        -50.46099823  Gyration_radius:  2.46077417023 Dipole_moment: 7.260
 S          -0.40001011807646    1.43406943058192    1.23308246515211
O          -1.17633194757813    1.76644812214572    0.01853097560560
O          -1.21190778557043    1.21929044448522    2.38872185384229
O           0.45128194916717    0.27553179141884    0.91900314760798
O           0.56697726022594    2.63255478785008    1.49833533030429
H           1.05348453189931    2.72321465117615    0.65837241895307
H          -0.17434044491236   -0.92709868964977    1.87394162624455
O          -0.77159800140595   -1.53000516150603    2.36589672390196
H          -1.28273385403668   -0.91489629752224    2.90421934025216
O           1.50205224528257   -0.32266675084474   -2.11760413384816
H           2.07081249513156   -0.52923695561588   -2.86028029873108
O           1.15691247423847    2.39551903773464   -1.11600009339141
H           0.20014081299326    2.32147796357745   -0.96669413561968
H           1.43887973386005    1.53067202911090   -1.44521759983617
O          -2.08368284347159   -2.23807544831855    0.20957907717192
H          -1.56717910929305   -2.08862423386146    1.04909129444335
H          -3.00465682303418   -2.12467989260047    0.45093388179933
O           2.61197212586963   -0.99344807412268    0.17476009858423
H           1.92599217832480   -0.42839686872609    0.58945031868944
H           2.48814285424024   -1.86560872299069    0.55458581546487
H           1.98293452291583   -0.61406466653633   -1.30103692663537
N          -1.16047022438745   -0.35785447894410   -1.43818146530712
H          -1.21767176292177    0.53755830492479   -0.83641509075390
H          -1.48402634342653   -1.16163115468964   -0.83145646128507
H          -1.74788552085560   -0.26724251687233   -2.26112928481242
H          -0.16708838521357   -0.47280665015612   -1.71448884779800
