    26
        -50.46099816  Gyration_radius:  2.46068596137 Dipole_moment: 7.254
 S          -0.95873151530139   -1.55223361120153    0.63867036460962
O           0.38864082877673   -2.06429234369748    0.30599754748657
O          -1.30181702194169   -1.70123248969171    2.01735444132412
O          -1.03152758854409   -0.15328270621209    0.18792077835932
O          -1.97865947542888   -2.35063691043251   -0.23527617232061
H          -1.65335069374037   -2.21689365884877   -1.14455165409582
H          -1.15522518605785    0.69799414206421    1.60515414781372
O          -1.05272028600419    1.02588565338368    2.52400690612170
H          -1.26199770774095    0.24169256782054    3.04421360506105
O           0.75105895199420    0.94815460232022   -2.31947878276059
H           1.00428791305265    1.38023479783647   -3.13610412621534
O          -0.30008458899546   -1.77171078438500   -2.25660375389135
H          -0.06379445612355   -0.84524045631059   -2.40408421889124
H           0.19026811914342   -2.04565247804993   -1.46434144900308
O           1.53677773723237    1.35379879734351    2.28071620079296
H           0.54820667239237    1.34617376461580    2.40958931584790
H           1.89971094550440    0.91256692365690    3.05066234103544
O          -1.56466180300942    1.83113348586631   -1.42779849686357
H          -0.11676453349878    1.34204729881400   -2.04622630659137
H          -1.56149037485079    1.03911857149253   -0.84943040599862
H          -1.61904149650513    2.58154611650926   -0.83267341961314
N           1.88247017777957    0.01225378191854    0.00405865729819
H           1.76544481959672    0.61601481033235    0.86470492023557
H           2.85812093537813   -0.22992523264351   -0.13726848754075
H           1.29347232282728   -0.88008630046098    0.15920646374241
H           1.50140729404533    0.48257163794732   -0.83841843595139
