    26
        -50.44749637  Gyration_radius:  2.60636588079 Dipole_moment: 6.781
 S          -1.26443129949994    2.36034096953883   -0.56462362402841
O          -1.80918950935549    1.50153452640276   -1.60811967545667
O          -1.48437080078408    3.75951765786391   -0.73812731266060
O          -2.07862525328070    1.96694534459512    0.77856243915711
O           0.11528598908498    1.96965777241732   -0.26103747742868
H          -1.80418989906592   -0.03695206020364   -1.49448303725130
H          -2.56204261317834    2.77225518103174    0.92850354448405
O          -1.63297081115311   -1.02699216480639   -1.52878451377652
H          -2.27033904647986   -1.37961806822639   -2.15082278308706
O           1.86120271848090   -2.14810492325913    0.17053524767351
H           2.14987517266501   -3.05056837521473    0.03592671064366
O          -0.19015748191412    0.29000765391671    2.07321976756028
H          -0.73650586676706    0.94459604273247    1.62153081839136
H           0.72977722195824    0.49809345287911    1.83128061685874
O           2.53881437837224    0.16344725994626    1.53161111823072
H           2.89491591935109    0.06354715405744    2.41558283200210
H           2.45594162924175   -0.72835516780950    1.15893220743510
O          -0.61027297471643   -2.04128398677831    0.88619012213590
H          -1.12987612253418   -1.77789774975711    0.11228363616133
H           0.90764860825834   -2.19787606474268    0.50120081905702
H          -0.55578893978112   -1.23195750139470    1.45135319054819
N           0.91713751559882   -0.14670932251206   -1.44504095479514
H           0.64207183201798    0.75929990821901   -0.89523644923350
H           1.47632361822737   -0.78812917211066   -0.85298658756142
H           0.01482137869756   -0.61217152118656   -1.67548786963629
H           1.42494462657154    0.11737317439097   -2.28196278543224
