    26
        -50.46283886  Gyration_radius:  2.57973950488 Dipole_moment: 4.832
 S           1.11516154132181    1.49731098364283   -0.02281937355329
O           0.59297334700884    0.84121341131283    1.17376318557656
O           1.90684189067509    0.58884148583408   -0.83075617838040
O           0.00747889405954    2.08472188971861   -0.78276521781601
O           2.05429159298572    2.65499647121865    0.43309505662517
H           1.44687274945814    3.24193496827000    0.92654825518871
H          -0.91242512903532    1.04818865856864   -1.60431635508198
O          -0.15728588387278   -1.74131870547161    1.49343530953654
H           0.35482492619154   -0.92633425052682    1.65116216049048
O          -1.46167832433743    0.33971577648029   -2.03179538407922
H          -1.73251634625143    0.69433712948387   -2.87978257035242
O           0.83116321860273   -3.97412263041370   -0.08448986675586
H           0.55155558107067   -3.47922554653763    0.69687045838472
H           1.22332608043703   -4.78838339196722    0.23248342686806
O          -0.21682536579559    3.57391772326436    1.43045491914700
H          -0.41273861440491    2.86733259119741    2.05283429946522
H          -0.46052734469693    3.22960569534557    0.55452162578173
O          -2.01480258318676    0.11424858208592    0.81339966903558
H          -2.21337953643182    0.20933183994874   -0.12393287608755
H          -1.07864543557292   -1.42752628278345    1.51781029349186
H          -1.15949615663784    0.55933482837657    0.94753835531215
N           0.34360394555143   -1.46130393382809   -1.13921921772707
H           0.66417007619789   -2.34311150852223   -1.53614155158627
H           1.10978884988964   -0.72494684158380   -1.09530844810285
H          -0.44739787882668   -1.03204231595253   -1.65385728054568
H           0.06566592554557   -1.64671662713093   -0.13873270475286
