    26
        -50.46011893  Gyration_radius:  2.34366974014 Dipole_moment: 9.061
 S          -0.94879824115853   -0.95071925787087    1.32529713177124
O          -0.44138651613354   -2.28204360786216    1.02620064285736
O          -1.39514506791500   -0.71967141546125    2.66183760095089
O           0.29232747045066    0.03451890292527    1.06969446872389
O          -1.92099338775955   -0.50246982998860    0.31613729792336
H          -1.60275355903823   -0.17656497347747   -1.15940448279728
H           1.07742265770869   -0.42962213452355    1.42933723386641
O          -1.36699844777723    0.14917909536315   -2.08005051707643
H          -2.19481580797601    0.17139846796818   -2.56231658252549
O           2.20479376752555    0.57372260157433   -0.96846916039782
H           2.73808431475895    0.58916570646970   -1.76468083841031
O          -1.64960523803715    1.89728248358003    1.32330513175813
H          -1.35240977197471    1.68710583763280    2.21349146334107
H          -1.96583312810030    1.03087253757879    0.98774575310963
O           2.03999608140528   -1.80938569903101    1.79747904562463
H           1.19076708565766   -2.28130211901043    1.69617475606727
H           2.56534098860238   -2.04286450956570    1.02769654311827
O           0.75091188482546   -1.63038688316428   -1.25493095386163
H           1.71840978224891   -0.28991695359544   -0.98040497790229
H           0.30264963348298   -1.96654332695625   -0.44860321856474
H           0.04727365430528   -1.26213569504808   -1.80249280919442
N          -0.00887269621909    2.07304563061515   -0.77649498297194
H           0.09777799036384    3.02192551322688   -1.11901776931413
H          -0.57682612915349    1.47978703437176   -1.42698485101735
H           0.91826863916052    1.57965669110410   -0.68572564311136
H          -0.51958595925418    2.05596591315173    0.15517968803661
