    26
        -50.46437747  Gyration_radius:  2.52998401412 Dipole_moment: 8.919
 S          -2.00098256015532    0.05803288352566   -0.36700891303086
O          -0.93661556409153    0.79919931400173   -1.05339212798618
O          -3.31643844764288    0.44962805804470   -0.78284978039170
O          -1.77349838864232   -1.46531431514286   -0.75097732205074
O          -1.78270246389382    0.07573202153229    1.07989423672017
H          -0.60663256885246   -0.95851603723873    1.31989961065151
H          -1.97494789525004   -1.47953034159591   -1.70651631115899
O          -0.20568372189487    2.17667405507922    1.09286736450928
H          -0.93265609876518    1.60393858855675    1.40696386038012
O           0.19593192525786   -1.52673989955641    1.48272013386725
H          -0.14781730799344   -2.38042250762138    1.74841128725435
O           3.30060940554198    0.38782969400230   -0.24998093605939
H           4.04773324411464   -0.18983056501668   -0.40985698830458
H           2.52501024644556   -0.02294663829575   -0.72325207109826
O          -2.45666356001983   -0.49075246036996   -3.11359107687266
H          -1.72131358512959    0.11873294524408   -3.22601172422118
H          -3.05607671989510   -0.04859904722520   -2.48480877641201
O           1.14622184445005   -0.81630654177468   -1.10040886665662
H           0.86235472359392   -1.37300262134785   -0.36192832284230
H           0.40963345671070   -0.17734630350674   -1.21335737087695
H          -0.25958581457749    2.02671786282397    0.13019369465290
N           1.75700107910317    0.64585486599373    1.88190201896476
H           2.15266206457048    0.88882744746059    2.78311693045538
H           2.49377947678061    0.60281168032682    1.12712087950913
H           1.27046841931787   -0.27151370641285    1.91233644743244
H           1.01020879103420    1.36684158819878    1.57851411386981
