    26
        -50.45619402  Gyration_radius:  2.48567403295 Dipole_moment: 9.346
 S          -0.87093467983848   -0.60050286639521    1.86054565941295
O          -0.66182275943065    0.83292097550595    1.54985554995484
O          -2.03954512570448   -0.82417300072565    2.64117267933443
O          -0.78970352511627   -1.38779403847582    0.62631088423213
O           0.39453935485108   -1.02352623959507    2.71119627819809
H           1.17375554627334   -0.99692266839758    2.12234623734849
H          -2.28896281319335   -0.74700033718272    0.16123230767249
O           2.54656237127916   -0.92347080628474    1.02336454565028
H           3.17847412354035   -1.57689703941591    1.32628308103015
O          -3.02944939519108   -0.12449543822829    0.03531004790077
H          -3.26234792573064    0.13470768178730    0.93099555997917
O           0.58302251662057    0.77384790579922   -2.28448107857590
H           0.78921482320727    1.19665316855633   -3.11934839590588
H          -0.39460962665124    0.91484586761712   -2.13614269753063
O          -1.95891708109345    1.26564374993714   -1.94745801487380
H          -2.32095944733879    0.86992187158847   -1.11763792213467
H          -2.53831525778233    0.94321350171021   -2.64066259763959
O           1.19864245148838   -1.70250378210247   -1.03501542819508
H           0.38393103610658   -1.74168975368970   -0.48268821563222
H           1.03983518112896   -0.97312326388244   -1.65005975406333
H           2.11097085452360   -1.30629434018836    0.20015353001683
N           1.38527656996728    1.42185162170829    0.22989697644357
H           0.44266952977853    1.17989421941391    0.81808399516618
H           1.66110611436200    2.38262949080155    0.39482440308054
H           2.09974004879445    0.76046805517189    0.55511101666572
H           1.16782711514946    1.25179546496728   -0.77318863753962
