    26
        -50.46437752  Gyration_radius:  2.53000692931 Dipole_moment: 8.918
 S           0.61843259800053    0.81057678863704   -1.76136201611750
O           0.53777066061164    1.46084235430222   -0.44835526669061
O           0.95741565625720    1.71892592969309   -2.81817133228011
O           1.76949504358503   -0.27430040272807   -1.62789966981659
O          -0.57750758564759    0.00308749001958   -2.00440479772491
H          -0.37742398184980   -1.28791521210620   -1.10792192440716
H           2.57125089447634    0.27328821631103   -1.52195331772953
O          -0.32014520074801   -2.05814290336273   -0.47787464346248
H           0.02971733610629   -2.78373762717573   -0.99615920120918
O          -2.09737987591283    1.23025949646159   -0.24783115169938
H          -1.88155136149926    0.81397717758365   -1.10528815550918
O           3.19702383798258    1.94191371143665   -1.40754224076198
H           2.54911068983989    2.13766445642522   -2.10900421007859
H           2.79865863704979    2.28001626987944   -0.60018305092297
O          -0.62451902969143   -0.49968618611551    3.23520905398994
H          -0.29581902121987   -1.09116465343602    3.91311135393126
H           0.12999089895559   -0.35980586883077    2.59845012231795
O           1.14026130927655   -0.40484641302581    1.31415892550906
H          -1.23723870326511    1.63013663898531   -0.01875581956343
H           0.93030452965609   -1.15764807378818    0.74399779394543
H           0.99066085528927    0.37721381289504    0.74003031680305
N          -2.18497955685502   -0.97177238448840    1.15261208220206
H          -1.58644433713776   -1.58445020940332    0.56470242910958
H          -1.69512736637408   -0.82029543843228    2.07524856270801
H          -2.22995091560100   -0.02110308217593    0.63885261076962
H          -3.11200600159308   -1.36303388683088    1.27633357758627
