    26
        -50.46109559  Gyration_radius:  2.57269885513 Dipole_moment: 2.865
 S          -1.78167562918890   -1.17005867956809    0.46412916958483
O          -1.44635819489639    0.04991299594984    1.17106973999296
O          -2.17540180829269   -0.93014798049777   -0.91949587453277
O          -0.74128823708090   -2.17911080460078    0.55039542182129
O          -3.05306984569704   -1.76297134597489    1.19994532114309
H          -3.22252503948996   -2.56410371647363    0.71453200615371
H           0.68705685367859   -1.92005008802620   -0.11655350700724
O           1.52578407715818   -1.70890786359715   -0.60788396243330
H           2.02842992738306   -2.52442765131447   -0.62731002338169
O           0.25732591768125    1.88738606533126    0.16244303855545
H          -0.47586040165214    1.46569210307902    0.64654293697143
O           0.41338797383494   -0.41115134584187    3.02889678431954
H           0.14345456374971    0.13549327127572    3.76863299297585
H          -0.31180551118568   -0.35949935682876    2.37385594204730
O           0.34452593862151    2.84034385596851   -2.55913295460644
H           0.33717673064131    2.86058193806463   -1.59225275819626
H           0.38891348231387    3.75164314343577   -2.84986877523676
O           2.18489793180461    0.39560633090561    1.13847813661879
H           1.07768052919933    1.49820832030095    0.56956944890390
H           1.71439257843057    0.08477302352171    1.93688128017425
H           2.14633125368539   -0.35180088055454    0.52178931361703
N          -0.00256537959689    0.17134956450963   -1.82919602896009
H           0.72994350265661   -0.54517301054504   -1.71708752455126
H           0.03066161063598    0.64165487456551   -2.73160954353025
H          -0.94427200586975   -0.27014851408194   -1.62108833006747
H           0.14485920143468    0.91490575110859   -1.07568226031828
