    26
        -50.45063059  Gyration_radius:  2.64614019251 Dipole_moment: 12.423
 S           1.83344224804835   -0.06669342803966   -1.82116001188638
O           1.82077576269527    1.30784710478030   -2.27756066342825
O           2.82701400043120   -0.94050269255382   -2.34524762090801
O           2.11857336006472    0.00200475524304   -0.23802119870318
O           0.46934512705912   -0.65170440131405   -1.90502851447553
H          -0.89546830494941   -0.02398113714336   -1.61977969159974
H           1.67886737215901    0.79070251929046    0.12281349067163
O          -1.78218609977374    0.32138642559344   -1.28466638869895
H          -2.44579247341114   -0.09606065472515   -1.83469988515151
O           0.69029205115643    1.92126070585300    1.03787582229986
H           1.24005448448298    2.61138035556304    1.40933071892631
O          -2.15860752996853   -1.67587829615329    3.17855486086857
H          -2.53888109713141   -1.50956188352569    4.04301324844945
H          -2.04714836379648   -2.62498777069037    3.08696669247791
O           0.74318352947316   -2.33041314324116    0.01325317521732
H           1.68413849701850   -2.26977300517059    0.19925004976359
H           0.64919056100369   -1.85656151876608   -0.85450896172122
O          -0.16744266547398    2.62727429669630   -1.26158895307992
H           0.30066514254672    2.29854731110364    0.18091400294949
H           0.59066996409263    2.21900972244758   -1.75941802069438
H          -0.92792713995292    2.05577175119429   -1.43294342148597
N          -0.74511241887768   -0.41973865049434    1.09526579623262
H          -0.10647207374663   -1.21034779078868    0.76738328063155
H          -1.34142599775870   -0.15677000090762    0.27757454167260
H          -1.31212169616526   -0.73044999866771    1.89058063123222
H          -0.17762622897477    0.40823944429023    1.33184706045588
