    26
        -50.45835304  Gyration_radius:  2.50985935721 Dipole_moment: 2.058
 S          -0.94775023021920   -0.14164272813798    0.65161347102162
O          -1.00420456118042   -1.11614565151936   -0.42466202439202
O          -1.33678672172844   -0.88111552306576    1.95641547796751
O           0.43500585126564    0.34587410912131    0.83576172428316
O          -1.85169793488953    0.97909694418333    0.45127974052049
O           0.56693569868720   -0.71707485253828   -2.49948033725264
H           1.31183108507203   -1.35603426334788   -2.33902530437111
H          -0.12712210412253   -0.96194689128649   -1.84060406708031
O           1.19022329389018   -2.27310953748917    0.68665571354511
H           1.29892197471629   -1.36783502932191    1.01077975865379
H           0.27674068398872   -2.28329125604919    0.36488019769968
O           2.41006474353859   -2.39927624923742   -1.68011990317700
H           2.08982693986007   -2.40132858795894   -0.74614923445224
H           2.41241347584985   -3.31351192251994   -1.96695911151147
O          -1.13460284909974    2.46523115361728   -1.56436641404381
H          -1.49361560650182    1.98652783657038   -0.77433313872902
H          -1.65414879576914    2.16663874711587   -2.31385410164242
O           1.16532156004445    1.37232402877491   -1.33876806313081
H           0.99588114472332    1.01199974306729   -0.38685646296218
H           0.99169908356440    0.46194472994893   -1.96087276540003
H           0.35121307334593    1.95767416093959   -1.51562653924667
N          -1.18643011274095    1.39272856412556    3.20152954258972
H          -1.59444435804457    1.75988152000881    2.34674698833803
H          -1.32605547674982   -0.15175568266610    2.64256065790656
H          -0.20472543376770    1.63774479697317    3.20504637820939
H          -1.63449440373824    1.82640184070712    3.99840781666761
