    26
        -50.45619399  Gyration_radius:  2.48553746532 Dipole_moment: 9.345
 S          -1.69242248471756   -0.70609070800505   -1.10334461353765
O          -0.39511898481406   -0.46455674482370   -1.77685031414184
O          -2.40559688552386   -1.79925813917832   -1.67028255257771
O          -1.48644871310565   -0.78508839339084    0.34614774148585
O          -2.52706510011721    0.61795146721280   -1.33624218012985
H          -2.09976255414407    1.33468874117068   -0.82801187099316
H          -0.74362218087146   -2.29303193547551    0.12259624105574
O          -1.28663772336495    2.59222952403060    0.09672293269440
H          -1.96035451317833    3.22102597050539    0.35894561922314
O          -0.21226436702503   -3.01313709318695   -0.26559939326874
H          -0.60558487404080   -3.14255467557777   -1.13288953771351
O           2.09032274599218    0.38486392293797    1.28154170914477
H           2.07062126633481   -0.56510331825702    0.97376894429949
H           2.95939080903247    0.52404483529289    1.66040068578920
O           2.16574614238094   -2.08437819143920    0.43629185845652
H           1.31426923883687   -2.37884004491863    0.03059775031319
H           2.35496725799057   -2.74544187287260    1.10515363169557
O          -0.58317936430288    1.01068129069031    2.01090190468415
H          -1.05646880591330    2.05920979438887    0.91951320993460
H          -0.99746634104296    0.25455121938478    1.53440003441163
H           0.36546253373712    0.82379257454537    1.98402660593849
N           0.97419480092560    1.46411343960720   -0.94921944813963
H           0.37859448144492    0.57537890446637   -1.33435931576457
H           0.28302424187987    2.17734639274078   -0.68988308668793
H           1.49019368866665    1.13997926966461   -0.10606305656124
H           1.60520568494254    1.79762376047859   -1.66826351960419
