    26
        -50.45299558  Gyration_radius:  2.45547523738 Dipole_moment: 7.066
 S          -2.17774343793699   -1.03930821062543    0.00279740925672
O          -2.02092848235188   -1.21208186609218   -1.45174632996781
O          -3.47251381822998   -1.30605600081682    0.51735811277217
O          -1.18618607468108   -2.08082664671469    0.67097215973385
O          -1.63947215462727    0.28297412780263    0.38081349403198
H          -0.73660319596328    1.46334210129136   -0.10276159583901
H          -0.28727314436924   -1.87576003226582    0.34517409783583
O           1.30036429535809   -1.38603535329324   -0.05648516966208
H           1.97385826829527   -2.02096657944966    0.19059816862682
O          -0.10385465321740    2.15547237682434   -0.44452559679897
H          -0.58653204909357    2.98244538463862   -0.41247414205812
O          -0.85534304044363   -0.19131017931308    2.85336015822130
H          -1.06292415318236   -1.11599170912821    3.00299840906684
H          -1.31405225660392    0.03949406291748    2.01855174785982
O           2.50435971768682    1.19892640170938   -1.17870735142899
H           1.79407826468457    1.79800916192174   -0.92031278973540
H           3.01900043947586    1.04706188945400   -0.38367730172914
O           1.35332355701921    0.62071271357005    1.59199316570435
H           1.38549514136112   -0.61413937958403    0.58190223487266
H           0.93322152886225    1.33709272446039    1.09842262966887
H           0.66423717651362    0.32795003728791    2.23136983074935
N           0.11636175141199   -0.07347824744230   -2.13488910170290
H           0.34425365756797   -0.13009761489749   -3.12143179929362
H           0.06493718891021    0.90557538970690   -1.82317391183564
H          -0.85545941307262   -0.57788733783728   -1.89167315366270
H           0.84539491665700   -0.53511720412469   -1.56445336475327
