    26
        -50.43565114  Gyration_radius:  2.57248315055 Dipole_moment: 5.775
 S           0.36375138036361   -0.87945992196772   -2.31932496588292
O          -0.20243950402214    0.35107250161110   -1.85418112675125
O           1.69919150307809   -0.88398080680000   -2.79291554462450
O           0.15145301541229   -1.99751217835952   -1.28816813891081
O          -0.57129411876649   -1.35117929411379   -3.51759377839495
H          -1.42944168177818   -0.94420892724932   -3.40357878884497
H          -0.74142713803164   -1.85897137515594   -0.83752368805167
O          -1.79080052395459    0.11008307503510    1.73059259919600
H          -2.29234029270560    0.23019090599652    2.53747765206266
O           1.71325973017339    2.33075777607077    0.60322557424357
H           2.06447119464111    2.99743317318058    0.01182015467408
O          -2.14138062406635   -1.66811028791521   -0.19779869499396
H          -2.34903310073085   -2.46530330147948    0.29536842727917
H          -2.05169607192570   -0.94479930137244    0.47099894708279
O           2.13811133778828   -0.30440534485617   -0.13252211487460
H           2.10260687933491    0.65950834074233    0.01892728020650
H           2.31164133223498   -0.44945899175604   -1.06532075197810
O          -0.89511004858393    2.16834662223816    0.04675017312030
H          -0.70805303382697    1.62706679416381   -0.73557674738966
H          -1.33022384277278    1.56107950933414    0.66430594011925
H           0.73633922312578    2.33485562297611    0.45999844572679
N           0.72389199457618   -0.15526263182573    2.32497016650116
H           1.10402143000649    0.78308178432710    2.39502206086325
H           1.07372785453464   -0.69052720386641    3.11004139608439
H          -0.81282798399608   -0.01460310139775    1.99864823248616
H           1.13360108988712   -0.54569342756663    1.47635729104001
