    26
        -50.43565105  Gyration_radius:  2.57242111409 Dipole_moment: 5.771
 S          -0.06618734361341   -2.29745395078402    1.00129885076028
O           0.19606628048596   -1.01835331900333    1.58976273793743
O          -1.34720032726693   -2.87950248923096    1.16847771327823
O           0.34385424036094   -2.30735717396501   -0.47861815787122
O           0.99849211998098   -3.28836435629096    1.64728831831708
H           1.74034419638089   -2.76900582651408    1.95542491239891
H           1.16532670116652   -1.73135065466052   -0.59214199992184
O          -2.20621348369574    1.71352844977048    0.96254137201652
H          -2.67073484717170    1.69488934569366    1.80006990278290
O           1.64997195865732    1.61863326365310   -0.93375578793900
H           2.07859033528719    2.36002792995893   -1.36228207987114
O           2.46174964520124   -0.89300102041766   -0.74081610910882
H           2.81932806977380   -1.05950293104379   -1.61617185305439
H           2.18793537840528    0.05742713178780   -0.73023824068224
O          -2.01123778200267   -0.69834135610007   -0.38309002503246
H          -2.11118933972050   -1.48328743181513    0.16012748148260
H          -2.19442628708315    0.07934998846922    0.17817343329910
O           0.39471729575333    1.69378884360530    1.57450530836235
H          -1.24904687362640    1.79660185073903    1.19012062121587
H           0.36305290768063    0.73822075006111    1.73544173723271
H           0.92670477920614    1.78740381167729    0.76968321243970
N          -0.76730300525020    1.38612798593178   -1.85590656144123
H           0.71311944470446    1.53923668520147   -1.33348814300602
H          -1.04557079721951    0.44688099735456   -1.57160368204429
H          -1.34706557203244    2.01176683874285   -1.30604064872688
H          -1.02307769437708    1.50163663719134   -2.82876233282095
