    26
        -50.46043703  Gyration_radius:  2.58977946042 Dipole_moment: 6.570
 S          -1.54846951532529    0.80503910592351    0.16219942868404
O          -1.50807767212694    0.27279099460413    1.53597167215190
O          -0.36527995587271    1.55625160512936   -0.15251542602144
O          -1.79265135418446   -0.29418376193779   -0.77612402462579
O          -2.77480608342364    1.77236110836101    0.07962735990480
H          -3.53156317968810    1.19471331732896    0.29582522749031
H          -0.52464892950172   -1.23129191732208   -0.90989791362372
O           2.93851758966772    0.40078711234428    1.06816796562852
H           3.82128348686311    0.07925241408720    1.25724082375396
O           0.25232290673120   -1.85621479265726   -0.86623347956341
H           0.01962480030955   -2.60271017064598   -1.42104505390898
O          -4.01758758433455   -0.48255107398653    0.74022633194639
H          -3.40328113468800   -0.45698484213540    1.48544427227791
H          -3.47486706050085   -0.76813145691751   -0.01037515033154
O           1.11234878179622    1.93107661893369   -2.31395827699043
H           1.50430146929441    2.79370418089754   -2.16730594933441
H           0.47635204094416    1.80567673610401   -1.57787634370608
O           2.46916818616925   -0.19678725169973   -1.41991381483721
H           1.73707590290642   -0.82779268251431   -1.35235429059303
H           2.07570645136114    0.58951207105763   -1.85874532312578
H           2.80552075456997    0.27884720403012    0.08262531249765
N           0.75678888625280   -0.96596447280347    1.64598613141097
H           0.66468126753440   -1.52354768950775    0.77534804278791
H           1.60896003189884   -0.34016779019033    1.53542421966483
H          -0.13863347050007   -0.37343025738192    1.69779031641354
H           0.83721338384059   -1.56025430910236    2.46446795204880
