    26
        -50.44328775  Gyration_radius:  2.41218761961 Dipole_moment: 4.378
 S           1.46594761149521   -0.96298842247571   -0.92577626453894
O           0.55877505065745   -0.74380758566819   -2.02674479630280
O           2.60571908477786   -1.76709706106590   -1.15393270921055
O           1.94298552024969    0.42471997090195   -0.40433629830569
O           0.67638884463123   -1.54234359823163    0.26595644962208
H          -0.26057502411413   -1.13836635518900    0.29608747610104
H           1.23041125002445    1.14485365989867   -0.47957440906216
O          -1.57728942776227   -0.40524092343460    0.51598540439544
H          -2.16918374182956   -1.05135724850571    0.90431263202359
O           0.20718158613460    2.29072236389713   -0.60782213661310
H           0.56366057801639    2.94356802230107   -1.21358284336588
O           1.99562077125718   -0.12424689270368    2.35534368547865
H           1.80340084293211   -1.06141958715940    2.26744471128181
H           2.28723222415268    0.15866960639801    1.47895887725021
O          -1.49260994739055   -2.50190831494855   -1.52662709889394
H          -1.31170711799455   -3.35358470921749   -1.92606360509241
H          -0.78256141809418   -1.91038618111989   -1.81803835020564
O          -1.56733245040229    0.92490509029811   -1.89746135312835
H          -0.89971387176794    0.32668362987426   -2.27229747989215
H          -1.97170034841222    0.40677379875345   -1.18521504118866
H          -0.55780926511039    1.84789871540330   -1.09100744993675
N          -0.53688729911517    1.28229029880377    2.18184235204185
H          -1.27782975984401    0.25814066752218    1.23435362993280
H          -0.30451311358649    2.05117059331885    1.56279635623025
H          -0.97101132859624    1.66239896106948    3.01263177319058
H           0.34340076968809    0.83995151128207    2.45276648818950
