    26
        -50.44328974  Gyration_radius:  2.49360685635 Dipole_moment: 3.825
 S           0.70146848287664    0.97313461561529   -1.72942311249431
O           2.04830963434134    0.58265497970457   -1.39089989402908
O           0.12219631350892    0.32132949079863   -2.85507949034588
O          -0.20175940769617    0.72635720754555   -0.48161344817126
O           0.62543522142757    2.50016417072543   -1.85132812967237
H           1.07059845254336    2.81761040609109   -1.00312495209235
H          -0.41833994599931   -0.25384039702443   -0.48955565237908
O          -0.52778272668978   -1.75470401305436   -1.03678370542618
H          -0.43008014512613   -1.50993827744894   -1.96485965904034
O           1.03108973687668    0.83255637603186    2.10553672357951
H           1.51908395663746    0.82109359455747    2.93107010668325
O          -1.44753152609973   -0.59425972713623    1.93507444785607
H          -0.87145233253290   -1.35469378968230    2.03960144185967
H          -0.86097554088175    0.17205527274227    1.86853961001085
O           1.93927255195878    2.70881596665220    0.33416171342061
H           2.56014270315721    2.08798207859764   -0.06830979490559
H           1.46210285811954    2.18507124727527    1.01184198768885
O           1.77050293643660   -1.23705019920839    0.57074690340422
H           2.09561532377290   -0.67827395559977   -0.15834697617144
H           1.32760961190233    0.04485008724782    1.59085571935571
H           1.06699442909715   -1.76749539357517    0.17576819794111
N          -3.05277123006206   -1.54036081733316   -0.30918517796344
H          -3.55953295217438   -0.84847471704878   -0.84641395632447
H          -3.68590253965375   -2.30084273754346   -0.09822339898807
H          -1.51200967171089   -1.82657984814655   -0.85058431833755
H          -2.77228419397499   -1.10716163073639    0.57053484459521
