    26
        -50.44955310  Gyration_radius:  2.67240998056 Dipole_moment: 6.804
 S           1.42059696397793   -2.28073586279654   -1.31680697721076
O           0.81944255153192   -2.84590201172723   -0.10269562738915
O           1.80876666725081   -3.23205256135768   -2.30658173803781
O           0.16147851533295   -1.47782173249364   -2.00725228672872
O           2.37058266497286   -1.23721463996931   -0.99065546619577
H           2.04202539437879    0.26715204542571   -0.42934543055912
H           0.08935556094668   -1.98121771112328   -2.81172399584947
O          -1.89517915128569    0.08974010295669    1.65430092763023
H          -2.77162690269899   -0.11184822784126    1.98290572406366
O           1.59847907358261    0.99849201272856    0.06648808464951
H           0.97834292984771    1.39891947897383   -0.56150723071456
O          -0.55512540515664    2.41601530852555   -1.13901717053198
H          -0.62003409126934    3.24069988273080   -1.62081234544896
H          -0.65799698465234    2.62988502048544   -0.18110472825206
O          -0.56216154745074    2.52292505839132    1.52197749134662
H           0.36505370456836    2.27187378404912    1.58007490962363
H          -1.08249485665109    1.72352356522383    1.71594220386145
O          -1.88511364271837    0.03029655402124   -0.94256729454280
H          -1.24277822025816   -0.60601028451991   -1.29652297868641
H          -1.95470653633289    0.04190336248389    0.65360931465351
H          -1.52778271216465    0.90374374991534   -1.18010897976884
N           0.61560314840555   -0.94892138312689    1.57252077778117
H           1.02355435593336   -0.11786239132211    1.05685609483750
H          -0.37555426130136   -0.74803240351703    1.78760342564494
H           0.69193415710681   -1.79860673935213    0.88089326877490
H           1.14533862409482   -1.14894398698200    2.41353002713851
