    26
        -50.45931687  Gyration_radius:  2.40422242375 Dipole_moment: 5.316
 S          -1.55862975639854   -0.32892162224893    0.30528242383703
O          -1.07628696090642    0.76271177582773    1.15194759536265
O          -2.37288614526027   -1.28797814970460    0.96864875956099
O          -2.38971648435884    0.34441956953538   -0.84536346299792
O          -0.39515307718012   -0.94644955849490   -0.38838000581796
H           0.01489421155972   -0.61117140362244   -1.93800764005708
H          -1.82688901257478    1.07414337914568   -1.17144952590666
O          -0.05130051805219   -1.08984597077025    2.72973050287299
H          -0.49038923756863   -0.35262861843137    2.26236844281984
O           0.22078859703300   -0.24855672665299   -2.83251463901200
H          -0.30049354617608   -0.76384663057531   -3.45041327859938
O           1.37102375509694   -2.76901946591449    0.94325756460134
H           0.69143352143581   -2.66168768222472    0.27030123162756
H           0.96151297101250   -2.44210585423575    1.75625328823743
O          -0.65651299585053    2.08625443135992   -1.98561180303956
H          -1.06126178216004    2.60994476147397   -2.67943866434180
H          -0.23717611784169    1.30238762578364   -2.42000598004839
O           0.81801763832274    2.42118034134957    0.37724070208728
H           0.03136389145429    2.02760519581968    0.81336146112114
H          -0.77566149787052   -1.66123940894096    2.99474751577688
H           0.52491818744435    2.55880467867936   -0.53419102146968
N           1.75167405313141    0.00193171528910    0.73786112809280
H           2.62772322504734   -0.36828378577509    0.38058272314524
H           0.92511036883063   -0.46480463796989    0.23834442283614
H           1.64071160684088   -0.24141623388086    1.72474633430157
H           1.61318511496506    1.04857226518716    0.59070193501676
