    26
        -50.45191057  Gyration_radius:  2.75226533723 Dipole_moment: 5.120
 S          -2.52051492401416    1.31901565434165    0.44919185595258
O          -3.02532822108782   -0.01278934878864    0.11740303114605
O          -1.24327367942568    1.24540538848396    1.15473006689893
O          -2.49424973562570    2.19818891215566   -0.69519832574538
O          -3.54593233893002    1.94145450640587    1.49463026210994
H          -4.30403693623589    2.17215239287532    0.96471204590620
H          -0.75414373809743    1.73525791235461   -1.56620476650433
O          -0.04086924631784    1.23020384921033   -1.15002144863658
H          -0.28100611754992    1.32121231573841   -0.19910655810291
O           2.67896275825627   -0.58132151257204    0.75408632279980
H           3.46709936655606   -0.47713629275490    1.28846814428336
O           1.51892747750866   -2.60511287176974   -0.83236356141060
H           1.92986061004644   -1.93814227292496   -0.25944518765644
H           2.04212560231516   -3.40034714113018   -0.72919266308954
O           0.18109140057643   -0.90573252975786    1.92317211375931
H          -0.31742493153248   -0.06616134954847    1.91595623671452
H           1.09908496613722   -0.69104746744702    1.68597599252976
O           2.64409486681699    1.30354315047171   -1.12086232964010
H           2.91223593924545    0.99548787377326   -1.98838851255597
H           1.67495911808460    1.43618051618774   -1.16728599550219
H           2.69070865418683    0.15468095342310    0.09509974159875
N          -0.86880543935009   -1.30616357579954   -0.45206698126315
H          -0.37966987222875   -0.57156379669711   -0.98887529951546
H          -0.79657441434088   -2.20316359180836   -0.92264596878515
H          -0.40977128602092   -1.34977746999284    0.51071125434623
H          -1.85754987897204   -0.94432419448135   -0.28247948968421
