    26
        -50.44328970  Gyration_radius:  2.49362249302 Dipole_moment: 3.824
 S           1.06679869973863   -0.13255857184168   -1.80934563094688
O           2.30352270504781   -0.14242566868081   -1.06669450738405
O           0.70087272782666   -1.35714459217357   -2.43702068552805
O          -0.07604898000209    0.30061794711550   -0.83975425872835
O           1.07281972810674    1.03822957095975   -2.80017314185228
H           1.35163471138233    1.81978474588625   -2.22579163668382
H          -0.32178600152758   -0.52292316962004   -0.32098994383696
O          -0.37380260558791   -2.07039724848137    0.08769939525062
H          -0.08421721989638   -2.39194527374897   -0.77457389538231
O           0.61994067884521    1.97161502886785    1.38504731009220
H           0.93215677452682    2.47559708836913    2.13891570075285
O          -1.82376220744001    0.49393152236334    1.61924414113168
H          -1.20981357099525    1.13246415333141    1.23064455888435
H          -1.30608536731537   -0.01698006737539    2.24537693750116
O           1.93189817018271    2.56941374751493   -0.93929518131777
H           1.31029155633950    2.48796956611959   -0.18547448633652
H           2.59743868275847    1.88609655055417   -0.78770559127491
O           1.57312116236817   -0.53155677076003    1.49287080682175
H           0.98380857565498    1.05998259194877    1.48416827572658
H           0.94414493929656   -1.25099205806823    1.35471934681713
H           2.05752714007382   -0.46379997344423    0.65009397644253
N          -2.98362234714239   -1.69689718378310    0.08174291102525
H          -1.37731989283415   -2.10753424850154    0.09709632479494
H          -2.86835580394287   -0.81783371407982    0.58597061074099
H          -3.34759900119881   -1.48016478896887   -0.83734514679098
H          -3.67356326428594   -2.25254918346073    0.57057379004750
