    26
        -50.45909893  Gyration_radius:  2.4773843203 Dipole_moment: 8.426
 S          -0.02823690001627   -2.31334290088798   -0.88711138940584
O           0.34699280226525   -1.49143326771983   -2.05232310764991
O          -0.74501066658539   -3.49824312350467   -1.20674045566218
O           1.32241916104720   -2.70498768911635   -0.18763236369364
O          -0.72896802149970   -1.44488967683515    0.09024703289428
H          -1.75855080840226   -0.34472958319727   -0.17350840335002
H           1.73444573752068   -1.84838374692381    0.02393369828368
O          -2.36587993075369    0.44747017076748   -0.32197142741777
H          -3.25575524635331    0.09488697085178   -0.28274271007764
O           2.34772006663313   -0.38161762752561    0.77577367072970
H           3.17394802886068   -0.60382383025863    1.20735197455904
O          -0.99377563218935    1.86422558541965    1.54439510741962
H          -1.56279790346641    1.38528536837936    0.90484401094339
H          -1.53753331461398    2.53342476870964    1.96109175076830
O           1.26439663504632    1.98360486423547   -0.07511103140674
H           1.80292650427931    1.20952319451704    0.17255629898481
H           0.58471636289469    2.06437634259536    0.61501269234416
O           0.28290274112567   -0.51880188135484    2.33103507217163
H          -0.13865397578880    0.35253455263578    2.31934498956196
H          -0.17181809049370   -1.02284824956772    1.61945320727325
H           1.63207302225250   -0.43432808009588    1.47848630855986
N          -0.24819586916537    0.96365519969712   -1.99063900112739
H          -1.20029928716863    0.99133373014535   -1.60338073366159
H          -0.20452094005107    1.38074812477576   -2.91294303207333
H           0.41130580900696    1.44279115846759   -1.31156836207476
H           0.03614973562903   -0.10643035422788   -2.03785378691238
