    26
        -50.46407106  Gyration_radius:  2.37905759939 Dipole_moment: 6.935
 S           1.24223522592462   -0.26362443730036   -0.83913748643942
O           1.02632691214696   -0.17383014789434   -2.34988809301851
O           2.59997088801965   -0.70433189281123   -0.57678901240159
O           1.01682338439152    1.07373693570361   -0.25181985526589
O           0.25806490339839   -1.19417772230128   -0.27452292169882
O          -2.29042743293854   -1.65389303449758   -1.08669674814355
H          -2.69904934700200   -1.30308938012238   -0.28823518959756
H          -1.35307412320897   -1.77742800804474   -0.85994027979007
O           0.45615398243983   -1.47215433312128    2.41022239997361
H          -0.37422631812205   -0.99457157659386    2.55098505980036
H           0.42272907051783   -1.71802747065869    1.46542484889083
O          -1.57350681514405    0.10919751959690    1.26000925693761
H          -0.92323899193094   -0.27286385760832    0.64339626455804
H          -1.78413309547778    0.97504950575256    0.89558650922406
O          -1.28369657682659    2.24146666892162   -0.63410139966351
H          -0.38231800893921    1.86423315792709   -0.48056522357566
H          -1.15402369743289    3.15162860267343   -0.90361167290937
O          -1.43386031649187    0.38028300976810   -2.61345116773787
H          -1.56449479609361    1.11175871381587   -1.97867842031432
H           0.03920424138175    0.04729039283553   -2.53487898562451
H          -1.88966061296291   -0.39906855535242   -2.22307636964638
N           2.35929267810958    0.21101997559278    1.78710943218490
H           3.06390628224133    0.58455105358604    2.41422806054045
H           1.66622861897395   -0.45712438467071    2.25335964287321
H           1.80334963406373    0.93619412783017    1.28204395155609
H           2.75142430095744   -0.30222487303235    0.93302739929311
