    26
        -50.47376049  Gyration_radius:  2.38785944831 Dipole_moment: 3.936
 S          -1.17296638633865   -1.30865825140083   -0.54088530901675
O          -2.37098267533486   -1.86431283499186    0.02459608715513
O          -1.35661798690196   -0.01077284932430   -1.16949621277088
O          -0.02547316231455   -1.30967382667209    0.35744661626770
O          -0.74107628006279   -2.30235763460664   -1.72137979440826
H          -1.58444577323001   -2.63624504170386   -2.00777683496761
H           1.26471126685131   -0.55902123116674    1.24301174605334
O           2.05225456477541   -0.03253553977268    1.47652774610275
H           2.73592826011315   -0.34200470677602    0.87525506084279
O          -1.64062913367162    1.69707672569916    0.86993212295740
H          -1.72576353861939    1.18806399952329    0.04109187119032
O           0.86627541806791    1.23845679278876   -1.93646985685316
H          -0.03066950478101    0.85845937242982   -1.82878561699641
H           1.45687743781114    0.46117167672005   -1.88923763325673
O           1.95012215434926   -1.18429984985729   -1.39283702660561
H           1.80255363537557   -1.82709197916425   -2.08852063915887
H           1.21511547632062   -1.32017892311108   -0.75869716531899
O          -1.93561402563848   -0.54722602676753    2.30718566143608
H          -1.82233741062531    1.03720957638014    1.57177924174943
H          -2.27141426857972   -1.08225427178463    1.56387120842049
H          -1.08465116129874   -0.93204291104311    2.52976259562420
N           0.90263241595067    2.18526906187193    0.50966282520507
H           1.44075164784136    1.44530659471639    1.02108726939238
H           0.96490081212898    1.94810745795727   -0.53137321663522
H          -0.13490056936839    2.08250069197201    0.76277298416694
H           1.24541878719683    3.11705394806741    0.71147628943986
