    26
        -50.44955592  Gyration_radius:  2.43598432574 Dipole_moment: 5.216
 S           0.65456422009026   -1.65163935637001    0.32264835437564
O           1.79395874830557   -1.16128325229674    1.03714512119516
O           0.42528424275368   -3.05626886817727    0.28911902265922
O          -0.62512082394035   -0.99455009010093    0.90630748954971
O           0.71222015853916   -1.15288050948390   -1.14207915346045
H           0.99299814975391   -0.18369756197964   -1.19817710724318
H          -0.49004440547976   -0.05527506164131    1.24567800059849
O          -0.38116058315275    1.39187589004253    1.81553018884956
H          -0.52496209344979    1.37444610135573    2.76302664193033
O           1.21075282136726    1.34184012832277   -1.43407199811938
H           1.31397634681667    1.49686835647231   -2.37511707902803
O          -2.15108760334932   -2.88091178749264   -0.47738652255509
H          -1.21619014432786   -3.07401134337095   -0.28294076553538
H          -2.58325056537129   -2.81039214537315    0.37575557269078
O          -2.00372143461758   -0.54384757135129   -1.84634813444872
H          -2.21427509528547   -1.33827290298812   -1.31434310338635
H          -1.23285039656934   -0.80186784978222   -2.35736244087016
O          -1.24461593218603    1.82939561952240   -0.83277729710030
H          -1.26859467193267    1.79088473511236    0.13096755644768
H           0.27451749238488    1.64391758502687   -1.20467054522374
H          -1.66473111895909    1.00396531471636   -1.16361102176770
N           2.15751797717913    1.62341294880051    1.36647372832700
H           0.61196915385620    1.58862206645461    1.67051652212352
H           2.26737393211517    1.94489499122460    0.41161577604696
H           2.86914527521621    2.05916703373160    1.93795653769932
H           2.31632634022944    0.61560756962652    1.35614464624642
