    26
        -50.44507712  Gyration_radius:  2.6167419557 Dipole_moment: 6.316
 S           0.39043411083558   -2.66357325644385    1.26489181701180
O           1.07395338896596   -2.03704887389440    0.16567839665020
O           0.96743979780070   -3.82312705658060    1.84281949570240
O           0.32421125584943   -1.54631054748121    2.40474740919657
O          -1.06523099157507   -2.88700254753891    0.92239364997353
H          -1.45297567398668   -1.98874807273304    0.45159880607007
H           0.30658959943035   -2.02733735727760    3.22705558654022
O          -0.87720882613790    1.33015994221523    1.21431348232081
H          -1.38112565279343    1.78008472704463    1.89257424061414
O           1.59698413530802    1.42763039323959   -1.73076979942432
H           2.45861132123788    1.37570495226484   -2.14584275226652
O          -1.82396749609266   -0.79236930074091   -0.12902105283574
H          -1.50139916041587   -0.07118342737517    0.45651224585351
H          -1.25215683702579   -0.75187343721567   -0.94633447516640
O          -0.01273877178981   -0.78076905546809   -2.01773664028890
H           0.51128798830598   -1.38210516406210   -1.46633605722209
H           0.50002436147497    0.04958505864798   -2.04782955005407
O           1.75786815549735    0.53039927727739    0.73710464426521
H           1.64822573176330   -0.42532479049705    0.59579091077557
H           1.73106595198925    1.16044925380128   -0.78126062965709
H           0.92679068162543    0.82011168414540    1.14341618332289
N          -1.00092586176442    2.62061730724675   -1.09850244395827
H          -0.08287588276912    2.39835887563661   -1.47667228316330
H          -1.68722394068613    2.16941348121562   -1.69111632261451
H          -0.92285243585504    1.89297466759845    0.38360443854864
H          -1.13280494920045    3.62128328697537   -1.17107930019523
