    26
        -50.44507723  Gyration_radius:  2.61738183636 Dipole_moment: 6.327
 S           1.00456959369679    2.03370330924905   -1.92596874109425
O          -0.28850124368944    1.41725253694525   -1.79916277423213
O           1.12609588893321    3.17621902849869   -2.75755546617325
O           1.39976119659190    2.47953916304923   -0.44375075046997
O           2.05263023333640    0.99680128640648   -2.26053307697955
H           1.89654313582394    0.12707934168453   -1.62797422431052
H           1.97255849206357    3.23317692435230   -0.55276279565266
O           1.04118373080440   -0.05259754522162    1.71209834161462
H           1.70279245335074    0.00703226400537    2.40135251539408
O          -2.56352218428173   -0.80661992432216    0.59703503641874
H          -3.47034292558259   -0.58978048434129    0.37770405852386
O          -0.88283115886580   -1.24669734178563   -1.53168595817505
H          -1.51400313159375   -1.23809152410110   -0.78679157073738
H          -0.86585809075858   -0.33429344426887   -1.85972847198612
O           1.59723074592038   -0.91009085899949   -0.76973468529146
H           1.47702143481276   -0.52300239049499    0.12626990743760
H           0.68634778764487   -1.19182326264828   -1.06623629493855
O          -1.15205890755986    1.40608465983242    0.77735326595503
H          -2.09770705656872    0.06187612202777    0.73727041503398
H          -0.33195301505984    1.12312058074808    1.20985038999413
H          -0.90887180419304    1.54875610369057   -0.15320798051128
N          -0.41397795987217   -2.25536816817221    1.95720307532795
H          -1.30495358333706   -1.92217014510317    1.59607290623789
H           0.49559431208834   -0.87689600595148    1.89048360441943
H          -0.58895566985050   -2.71072881658253    2.84378614150603
H          -0.06879227384717   -2.95248137850134    1.30861314268411
