    26
        -50.45420596  Gyration_radius:  2.39494647972 Dipole_moment: 8.243
 S          -1.37585690637356   -0.07430854963494    1.54443154353594
O          -0.45535515817807    0.72531405004366    2.36637941623939
O          -2.76037255349735    0.09579514573863    1.83172809473364
O          -1.10253660943813    0.44141370513657    0.06031373509676
O          -0.93621257334091   -1.47042833975638    1.47523450049513
H           0.48789808806955   -1.83260072725620    0.97016074008006
H          -1.13864579223835    1.41676652949672    0.03312066281942
O           1.42450479046781   -1.99132231365059    0.64368527774152
H           1.68510905173565   -2.83726423102265    1.00992419558920
O           1.21320011539990    1.26896582938357   -1.59589000330611
H           1.86845963792338    1.33347095992871   -2.29225906934952
O          -2.06055906596462   -1.93728096757394   -0.90711713888157
H          -2.80960986676169   -1.33960428394070   -0.92834317072258
H          -1.72458880397215   -1.88974515802237    0.00819268080345
O          -0.72171770315864    2.96992646355629   -0.63907696868284
H          -1.38346403730122    3.19325229075379   -1.29609984562640
H           0.00637480607897    2.52682892369365   -1.10989247641907
O           0.38704590693462   -1.17251220542417   -1.85505680088019
H           0.77726390216241    0.36744801919417   -1.71734956075440
H          -0.55588454615014   -1.36446787377459   -1.66965603520801
H           0.86016362194438   -1.60927172169781   -1.13163072381212
N           1.69408284613215    0.65145996262469    1.03637791672281
H           2.47461282568023    1.11528781053876    1.48805196296320
H           1.52191424383520    1.03651815285884    0.08529317219461
H           1.85251918083710   -0.37188384151089    0.94040214519846
H           0.77165461917412    0.74824236031836    1.64907575942978
