    26
        -50.46217486  Gyration_radius:  2.55688630777 Dipole_moment: 4.160
 S          -0.99405439400723   -0.58307657316205   -1.84460055860475
O          -0.68932774458868    0.65479215454015   -1.11786265595022
O           0.03268998236056   -0.97276762885296   -2.76172651995772
O          -1.34890741589775   -1.63330516257447   -0.88582624426468
O          -2.30787113152854   -0.27236677019426   -2.67453558206360
H          -2.90098785051307    0.12371521311266   -2.04136691514213
H           0.19127360236052   -2.59342775845075   -0.75816477735650
O           1.15155050879053   -2.59895100359174   -0.91815853776883
H           1.20501687681124   -2.28376747225271   -1.83235463466411
O          -0.19860528617780    0.42183733423518    2.49425482176307
H          -0.38123120452050    0.52572470465270    3.42858389847425
O           2.76464336281744    2.00225021996881    0.09148689885609
H           2.98280405945626    2.37499850138422   -0.76365478968565
H           1.89981464800985    2.40009092069284    0.35258381185152
O           0.21216671789671    2.57664541653571    0.67769248788066
H          -0.23901075545953    2.14154846513280   -0.06035138615517
H           0.03567939872598    2.00982344003598    1.44384601775402
O          -2.31208290782661   -0.70220800776646    1.34201588593958
H          -1.02030943107331    0.05852155444693    2.08249002571481
H          -1.96029757133345   -1.01978416276713    0.47334045276953
H          -2.69213431590599   -1.47639657766384    1.76165214548611
N           1.34113979000798   -0.24904668081149    0.31452742364779
H           0.54735833157754    0.13735123615268   -0.26551501310895
H           2.13972937130691    0.41449509902278    0.20772600327713
H           1.02418485837970   -0.23549902407141    1.29282381398443
H           1.51676849031934   -1.22119742778217   -0.03890608266022
