    26
        -50.45971336  Gyration_radius:  2.45379281136 Dipole_moment: 7.638
 S          -1.02607161513757   -0.19721407126595   -2.16224187538984
O           0.41308588222781   -0.43298294874069   -2.39208796881228
O          -1.88548885712305   -0.93839775756397   -3.01934375611083
O          -1.30940826966000   -0.43921304984721   -0.72243357608008
O          -1.26544102059946    1.32647339498049   -2.37980559389423
H          -0.62285033321605    1.75792512008766   -1.77067316308760
H          -0.82969599781408   -1.61103727133249    0.18168719034511
O          -0.40892556083844   -2.29489820552496    0.78160287526597
H          -0.95436696488126   -3.07885274554461    0.70873898443815
O           1.99480672916788    0.84519174528458    1.14837258972289
H           2.60490701474255    1.30345995787965    1.72684352948612
O          -1.86405022984742    1.38661377953922    1.01424162777944
H          -2.78262391737262    1.65055908972165    0.95542490799371
H          -1.72858272783608    0.69107379466709    0.31611996956938
O           0.24179747234420    2.34836444326581   -0.47058910495662
H          -0.48289157865911    2.28249567681843    0.17373188679813
H           0.97603013714731    1.84834733121907   -0.08253568838338
O          -0.05255983327213   -0.06817214395970    2.47528972156125
H           1.23371134761055    0.53532480437622    1.72188461376993
H          -0.21865938914193   -0.93855458771273    2.08177278535843
H          -0.77342028756521    0.50187846648482    2.15508774665736
N           1.78037214921679   -1.31445293809884   -0.47397698636003
H           1.19059683553400   -0.91730032715720   -1.34221831623362
H           2.58066820732452   -1.84274452385044   -0.80078027786382
H           2.06643624521618   -0.50350832708043    0.10400995773234
H           1.12262455242042   -1.90037869659684    0.07187793067992
