    26
        -50.47044798  Gyration_radius:  2.42968262158 Dipole_moment: 3.735
 S           2.17438035488426   -0.12579734855190   -0.31286938426434
O           2.75772358313736   -0.53349434975348    0.93389608527906
O           1.26892614359462   -1.11767143588323   -0.87916819460132
O           1.52794700120812    1.18500377881058   -0.25884186823465
O           3.37986979266346    0.02884194025449   -1.33882544996770
H           4.11723833781059   -0.25221961742610   -0.80694557284263
H           0.23247642957698    1.51114393589226   -1.13315371728191
O           0.26756382971777   -1.77340959769533    1.45052061988906
H           0.98429345868456   -2.17224339240636    1.94861657231239
O          -0.62231483326433    1.76166148655072   -1.57846685114821
H          -0.43278540102023    2.56174108657134   -2.07023983985373
O           0.27722387046792    0.88645505845312    2.07547564337595
H           0.32237085083174   -0.08843655230828    2.11548452738759
H           0.90592060442025    1.12455558430986    1.36728123120253
O          -2.26356067168497   -1.43277879876156    0.28193811076790
H          -1.52377892073748   -1.80230708054243    0.78612027796437
H          -1.95721471234103   -1.42249864583300   -0.65985173589129
O          -1.13191563883342   -0.97874549197274   -2.06951664118739
H          -1.14411976007679   -0.01916217990319   -2.18064990956914
H          -0.22162909695775   -1.17384689447111   -1.77978457268827
H           0.65105462595686   -1.59918295998526    0.56085107046469
N          -1.94185504661594    1.11094225362575    0.71420874318615
H          -2.71734028049552    1.64420938836235    1.08909338643218
H          -2.19819264870567    0.07042962975899    0.57032012317920
H          -1.61905602513926    1.49004923431906   -0.19620212142813
H          -1.09322584708002    1.11676096859672    1.37070946751317
