    26
        -50.45752354  Gyration_radius:  2.3907639723 Dipole_moment: 4.690
 S          -0.30973000171145   -0.49351572160164    0.67466255302272
O          -0.39400236046330    0.55351796169777   -0.36831497754631
O           0.84475000555473   -0.26726482394298    1.52603455331285
O          -1.55459778726290   -0.26278838340597    1.58375755266759
O          -0.37149473749898   -1.80919416506358    0.08486723774170
O          -0.57856839261900   -0.87054278467922   -2.66731238787840
H          -0.59702423519260   -0.23979394206906   -1.92727497148980
H          -0.68843510981865   -1.73585691490557   -2.26367290296655
O           3.03067538048316    0.58838921043810    0.21903329629486
H           2.57774704616984    0.17920014346300    0.97809077969839
H           2.83167354975236   -0.03904774082180   -0.51668867388644
O           1.89413128520951   -1.20059230912102   -1.35961974260779
H           1.24593100111271   -1.59937592025161   -0.75850434362133
H           1.38941504831202   -0.97352746030055   -2.15496621134663
O           0.46040644568941    2.16538818615530    2.41257832094737
H           0.60747498009979    1.19912251019658    2.29342909583866
H          -0.47480333741194    2.26816912202302    2.59889367545711
O           1.29112434493943    2.34726276805411   -0.00883753440717
H           0.54603987487457    1.67059537038934   -0.28451692878956
H           1.04910423356091    2.52849442647408    0.95814712577574
H           2.15744653381118    1.69394098688298    0.03543647882654
N          -3.11639891665710   -1.15642747643904   -0.29016077055981
H          -4.00514311419104   -1.63673598601097   -0.23254924771431
H          -2.37865703016254   -1.83941288044474   -0.43542343592640
H          -3.13475661403632   -0.53905979280161   -1.09227384480739
H          -2.32230809253262   -0.53094435391678    0.99518527396319
