    26
        -50.46228091  Gyration_radius:  2.54514709317 Dipole_moment: 6.947
 S          -1.48159290924388    0.88709375867174    0.03766859105828
O          -0.80389319563914    1.50753477391216    1.16097690622420
O          -0.65248975493809    0.83999385047854   -1.15996118532562
O          -1.96153045654027   -0.45351972440017    0.38985993543102
O          -2.72919760548699    1.75057169459430   -0.32985342896392
H          -3.23413447065962    1.74611579938222    0.50605596344370
H          -0.94312834195508   -1.65130367640145    0.48168172656714
O          -0.23880937945106   -2.35684640792686    0.53811449663327
H          -0.68352623708400   -3.14737124157384    0.84748627168869
O           2.99047394110916    0.05158873066889   -0.21177557676852
H           3.83665400513626   -0.24947839237178    0.12110032641826
O          -3.28756687020044    1.12099201568492    2.17741422734384
H          -3.11388753231344    0.23193443734697    1.83900046326411
H          -2.41088882236330    1.48805870837313    2.35772168052683
O           1.74656242669197    1.37268568703604   -2.55981378589521
H           2.33232047373187    1.42190891137297   -1.79847509537059
H           0.85753158635207    1.53025100266094   -2.21916592810702
O           1.20182254098386   -0.14723760488116    1.68305277065461
H           0.76166944812878   -0.99258137179197    1.52458032219352
H           2.37810201123223    0.09433245578668    0.57191235580703
H           0.51226315583503    0.54175298972991    1.57363257580929
N           0.99531989988365   -1.15010543345034   -1.52497785414291
H           1.08647812023895   -1.44433639066200   -2.49159784972608
H           0.29293756626322   -0.34641593412681   -1.45815379052960
H           0.64812504563930   -1.89139519391051   -0.89058298242738
H           1.90038535463537   -0.75422342415252   -1.16590113579834
