    26
        -50.46461210  Gyration_radius:  2.53611848103 Dipole_moment: 3.113
 S          -0.18096868206938   -0.75563262072138   -1.96217482825678
O          -0.02800541117365   -2.00786667209266   -1.25478955552465
O          -1.30231968326060    0.04230112984147   -1.48175738216477
O           1.05656375117249    0.01342013926826   -2.00067120199897
O          -0.53615902213592   -1.11942159754381   -3.46346013215848
H           0.08894577645215   -1.80813057011103   -3.66614782874697
H           0.59358459153908    1.65215721424801   -1.93382175373988
O           0.51895905513803    2.48967112769859    0.87770553526802
H           0.68025817259386    3.38480085472152    1.17694919012703
O           0.74902114521843   -1.73898393456751    1.24985846151442
H           0.50451325464531   -2.04642141100514    0.34851185540389
O           0.01668117812649    2.40678842659456   -1.69290586805337
H           0.35428469010180    2.54543701921239   -0.10527705794292
H          -0.86591768311272    2.02346617874941   -1.77006389948133
O          -1.64705826521120   -1.81894292270279    2.85241365111548
H          -2.07306540920276   -2.62851299315305    3.13563202741850
H          -0.77652237527086   -2.07153574293395    2.51514717467282
O           2.27575744913581    0.25917367987007    0.40071464015247
H           2.00085611859432    0.14576378717727   -0.52801622156616
H           1.88785546783705    1.09828702976420    0.68329908786013
H           1.53941042109530   -1.17327578291361    1.10362604210737
N          -0.99249159557790    0.24391680030218    1.11672842141482
H          -1.27589714956023    0.16704223696179    0.10357202693485
H          -0.27130070174789   -0.52847893363389    1.27341615501733
H          -0.54970983024252    1.16621539244003    1.26972104062814
H          -1.76727524296551    0.05876215067015    1.75179044062471
