    26
        -50.46373155  Gyration_radius:  2.44849705983 Dipole_moment: 3.693
 S          -1.85301994099148   -0.69523307293065    0.03884056509611
O          -1.41146315501960    0.21774189650926    1.07904368340077
O          -2.14472482757439   -2.03125807823424    0.45780147820871
O          -3.22960751484806   -0.06796627018277   -0.49539312400964
O          -0.94549191557638   -0.64211410876452   -1.11345349100145
H          -1.64132766370140    1.74331661211271    0.41456510148639
H          -3.77932721669118   -0.83429625818734   -0.62536481704536
O          -1.68039744467969    2.50666307455892   -0.20183891849423
H          -2.48530375626855    2.37268614376279   -0.70610652159449
O           2.20261056183617    1.13499886871536    1.12408050170555
H           2.16062157872963    1.81166456196657    1.80105277302805
O           2.52500203500948   -0.56214163990796   -1.26576393758037
H           2.09462441840529   -1.39663104624026   -1.05304925302224
H           2.91640872863827   -0.24745071392596   -0.44602641086962
O           0.62226790358781   -2.55612200026547   -0.16170199659279
H           0.04334749911745   -1.92624993663256   -0.63400533283513
H           0.02963204531109   -3.24996922552347    0.13860424893474
O           0.85078684137901   -0.90214129904963    1.99304413210129
H           0.91982168383784   -1.61613400360799    1.33076427685517
H           1.75841012298141    0.32838158078678    1.51944644410452
H          -0.03828311714968   -0.52502828527793    1.86596498131679
N           0.63086187050844    1.45250854541745   -1.02600720400528
H           1.17569770574661    1.61726634309984   -1.86689755933841
H          -0.11317921291770    2.15893472522358   -0.84769549146962
H           0.11068705713807    0.53570023160599   -1.12280054522141
H           1.28134572319486    1.37287335497078   -0.19710357315710
