    26
        -50.44890328  Gyration_radius:  2.42430115382 Dipole_moment: 8.951
 S          -1.89828915125328   -0.03385098593203   -1.13026402836322
O          -1.31316594578277    0.33278557020186    0.16328613606991
O          -3.19136222035288    0.50637876619301   -1.37133043634204
O          -0.85786084183105    0.62174367548953   -2.20303739420478
O          -1.73376739113343   -1.46252013340340   -1.36750295709999
H          -0.74641876730006   -2.01533619165247   -0.34985196997010
H          -0.66286975236568    1.51012606392389   -1.81259735758186
O           0.05690739963044   -2.37181367521936    0.15392076740586
H          -0.04536044432384   -3.32459218863460    0.17131855667487
O           2.13514910348835    1.09052246366431    0.33951988541811
H           2.99988406842629    1.31765093617830    0.68337522064767
O          -1.28747500484262    0.66789676912562    2.79037660613602
H          -2.03436797453578    0.22559562908535    3.19574005947630
H          -1.43478613791625    0.61932882574354    1.82492041374264
O          -0.13999715487474    2.54636232956591   -0.60404095476105
H          -0.70184740670949    1.97555081141764   -0.04665591938661
H           0.76093206312039    2.34582832158350   -0.31420305789147
O           1.03543813971281   -0.49894866279547    2.04614465537309
H           0.28855695725228   -0.03446311425069    2.47562841922233
H           0.61834816365878   -1.18152385291469    1.49807776899250
H           1.68108979954741    0.54992796592620    1.06429401597107
N           1.31924618096697   -0.68768067241154   -1.45977456589641
H           0.45236583945146   -0.24047271887754   -1.86903986555019
H           1.77678554268968    0.03287780625133   -0.83958163341507
H           0.98138249679796   -1.47613647364846   -0.84744456627029
H           1.94148242848444   -1.01523726461099   -2.19127778839762
