    26
        -50.46983150  Gyration_radius:  2.43246177953 Dipole_moment: 4.291
 S          -0.97577959891414    0.15210131273822   -1.80510551680219
O           0.33932697082159    0.80206917164801   -1.68443716138397
O          -2.00173586199810    0.92587224143715   -1.13881412192910
O          -1.33526070415536    0.19317194746319   -3.34731879687829
O          -0.91496756207363   -1.23673400112583   -1.42638871056488
H          -2.53690787992991   -1.67709907969175    0.18265363024845
H          -1.76833461793638    1.03665640013131   -3.42581187815263
O          -2.73333630712367   -0.88980948308480    0.69772500343611
H          -2.61189627236236   -0.15480536081507    0.06804810569843
O           2.17773748423297    1.13120017162629    1.87590208623128
H           1.50506501686782    1.75278068785408    1.55694217900271
O           0.70055623380821   -2.24184585676763    0.44503438652215
H           0.07249950556581   -2.11055073267284   -0.29275909483005
H           0.30861143707577   -1.71798377865430    1.18262989095980
O          -0.12819151441519    1.99007666805435    0.62110205759349
H           0.05814389489281    1.64279585749865   -0.27736428993016
H          -1.04005460082359    2.28995599079802    0.57421620605341
O          -0.43401748074966   -0.39547074858706    2.00760101101740
H          -0.32724665082276    0.47383249049121    1.58227658799467
H          -1.35174923531138   -0.65027250269087    1.77876300598218
H           1.71692254504058    0.55491352104529    2.49523151068759
N           2.29331909466410   -0.37300971287926   -0.34570241043087
H           1.61421301450714    0.10494430726398   -0.99227781855782
H           2.42690075832759    0.23907421193310    0.49845714980514
H           1.77602329754751   -1.26898679585243   -0.01836358213074
H           3.17015899335620   -0.57287692714801   -0.81223942963699
