    26
        -50.46373161  Gyration_radius:  2.44851429228 Dipole_moment: 3.684
 S           0.58671599283318   -1.80970794231779    0.54755704766833
O           1.42576280426089   -1.02455971625207   -0.34127359459465
O           0.00600841693459   -2.98915278964631   -0.01591809506531
O           1.57299959606961   -2.29455884953876    1.71632126651351
O          -0.39663961376117   -0.95186978997914    1.21942558210397
H           2.32673077448192   -0.05491231189509    0.69345494100988
H           1.30303562277625   -3.19522754852550    1.86553258783384
O           2.61038139565057    0.52633513912187    1.43226389015162
H           2.75337241505009   -0.06901393382838    2.17068734974205
O           0.03079308604176    2.18812593927045   -1.61618716844687
H           0.82351135200034    2.51732130855973   -2.04183958580806
O          -2.38211486277689    1.61978136116382   -0.01942127117522
H          -2.02632610425915    1.99396654024968   -0.83035112783356
H          -2.62515773322447    0.71196932603125   -0.22825146616587
O          -2.20310895497749   -1.26646171812043   -0.69557864486908
H          -2.21639911347096   -2.20818670712181   -0.88489478464506
H          -1.64311242233839   -1.18435889836227    0.10099142871047
O          -0.23884393076990   -0.29538078774594   -2.31698081895289
H           0.47351286616441   -0.65903242678973   -1.76093200304163
H          -1.06521837089760   -0.63346030058743   -1.92195861775946
H          -0.10543898778932    1.26261731847112   -1.97566925470106
N           0.20139842001588    1.59216247859277    0.99318767100534
H           0.13983213528007    1.88262522356010   -0.02098007388469
H           1.19415781630866    1.51239195278663    1.29711935452863
H          -0.36334732170011    2.21936685464108    1.55780104721316
H          -0.18250526789517    0.60922028826129    1.07589434047027
