    26
        -50.46372045  Gyration_radius:  2.56044313844 Dipole_moment: 7.076
 S          -0.74851176284619    1.44560764216384    0.11955395148985
O           0.53211795962003    1.32857849377810   -0.60818285205216
O          -1.59157292341375    2.48134677024087   -0.41266076220761
O          -1.47186327689677    0.05752814473409   -0.10221970598024
O          -0.51770928701716    1.50735726972904    1.55029618076629
H           0.14998516170761    0.40000084856166    2.38827593436402
H          -1.73602225529170    0.06098415813798   -1.06822275823376
O           1.43091808409207   -2.76889605943242   -0.20917854251262
H           1.78042424600335   -3.62502523456204    0.04027828373601
O           0.68398630152544   -0.31143088193645    2.85713298428739
H           0.74441972607242   -0.02781507257004    3.77030774798949
O          -0.61981140709556    2.39117270153566   -2.84632580927337
H          -1.05956126618276    2.69315321969765   -2.02398509619969
H           0.23409554342775    2.07639583486167   -2.52824328524987
O          -2.13117296444823    0.25438861077591   -2.58399144815731
H          -1.54553507356178    1.00905566882714   -2.85910831791345
H          -3.02622366317559    0.60040271108338   -2.60497790304344
O          -0.66376770208558   -2.18860768915056    1.27768795614385
H           0.56495540878223   -2.67050676058603    0.26620717741251
H          -1.13095480234558   -1.50663990531257    0.76878994714217
H          -0.27105010435408   -1.71350067559896    2.02553990170426
N           2.10820617967403   -0.30403478141060    0.56040017153963
H           1.97526068059885   -1.26360865392794    0.15576907622178
H           1.45456678428123    0.39562781956533    0.03016511445258
H           1.78139458273868   -0.31969347732739    1.54720453507372
H           3.07342580965057   -0.00184069983608    0.48948751835220
