    26
        -50.46372037  Gyration_radius:  2.55952105593 Dipole_moment: 7.071
 S          -1.30429116621423    0.34352391549579   -0.92337777838466
O          -0.79190595255996    1.34671867065776    0.03288120414046
O          -1.90820724062952    0.94473983406970   -2.08123234463623
O          -0.02699393526828   -0.46042980969500   -1.39401225047014
O          -2.11912471852349   -0.64290313242052   -0.23997284617594
H          -1.61756893047220   -1.58655576839028    0.87020578073845
H           0.48562183244257    0.18607805932305   -1.96147990062265
O          -1.25588674739124   -2.09833593286999    1.65662167462113
H          -1.98377724848209   -2.63683019524835    1.96988037395787
O           2.48036750509313   -0.67556495445341    1.76397409146622
H           3.08207511369796   -1.15881091772315    2.33115816480228
O          -0.50894828083774    3.16023013532527   -1.99211008764695
H          -1.21171848094520    2.50256942262778   -2.17800327880415
H          -0.40047680493211    3.09219995118123   -1.03659055872227
O           1.13315648248427    1.30260618641827   -2.87053120276775
H           0.84462719365395    1.14439934967400   -3.77218746245606
H           0.65081419514890    2.11975232096724   -2.57418247452539
O           1.14202792210078   -2.35190601734353    0.23630877662812
H           0.34928913830194   -2.53590938506215    0.76265067873552
H           2.12060610547337   -1.33259798066528    1.11238435137433
H           0.82951748559062   -1.79582298401006   -0.49537919581706
N           0.00553084001479    0.23243871669153    2.18601299642299
H          -0.31933053500966    0.74156225454212    1.27311291020141
H          -0.18558453924951    0.81230726975378    2.99549691021884
H          -0.51834808917492   -0.66481229990811    2.22325012323133
H           1.02852885561813    0.01135328107882    2.10512135453369
