    26
        -50.46217422  Gyration_radius:  2.55684923853 Dipole_moment: 4.137
 S           1.01960941684685   -0.70220388007411   -1.78822194839989
O          -0.24185173696663   -0.03491152996912   -1.44658291910068
O           2.09859920798448    0.20647150749071   -2.02652333030928
O           1.32276928739161   -1.71460253714874   -0.77253789723568
O           0.73037964628496   -1.49056983915218   -3.13214956935615
H          -0.07424807313935   -1.97197432881875   -2.95792772205672
H           2.54321103263247   -0.87141060340776    0.26837006491361
O          -1.58568374090703   -0.53645314172427    1.91087016856498
H          -2.17360697890812   -0.85510302456030    2.59635046899302
O           2.93666342407649   -0.02111994257629    0.53406359280893
H           3.13397056992841    0.38647515775294   -0.32167780548757
O          -0.79241509719716    3.27589083641967    0.53527183856857
H          -1.52306861208513    2.66329526575977    0.27947607315388
H          -0.62524041482590    3.82678163661788   -0.23054438449108
O          -2.36918959738031    1.22932863859468   -0.18079562165758
H          -1.81275514462087    0.80653934511067   -0.85097723659041
H          -2.31935593404986    0.64133428265316    0.58818368252094
O          -0.78919654452534   -2.60934082310667    0.45260559309248
H          -0.46423497746429   -3.38212832571715    0.91871204164416
H          -1.35449132194269   -1.31632057447729    1.34943659705208
H          -0.01200515925574   -2.25923650114012   -0.04981800312254
N           0.48853482114215    0.95773782710700    0.89244687677163
H          -0.08388371143831    0.47404090016972    1.59663514432049
H           0.18498546210530    0.58841250369735   -0.04968184451985
H           0.25273378981894    1.97459450513785    0.90452819250729
H           1.50977036647536    0.73447263535567    0.98048791740628
