    26
        -50.45653334  Gyration_radius:  2.50038345552 Dipole_moment: 9.807
 S          -0.30052277864965    2.27013967231770    0.83507241267994
O          -1.49026392494779    1.42108350425994    0.93135600059633
O          -0.28783308039669    3.40523127588131    1.68519713367379
O           0.92031880668187    1.42695890937933    0.97021728260846
O          -0.25305784216078    2.77297781700477   -0.66971658791205
H          -0.45091364866199    2.01403145210882   -1.24763093333961
H           0.46474541271481    0.30366782784602    2.43691845851889
O          -0.58622938645888    0.64688118874922   -2.35855798630380
H          -1.17500312086390    0.90707569107339   -3.06789585191536
O          -0.34447102368053   -0.16553128108209    2.69014262507507
H          -1.03210346429258    0.38459269930078    2.26525662948171
O          -0.45497981982658   -2.26756675289965    1.17142241618925
H          -0.78482949012035   -2.98918501890668    1.70834198481380
H          -0.37963039803635   -1.47994112064539    1.79281859150489
O           1.61122094089133   -2.42265998759340   -0.50185741063999
H           1.29559496863521   -3.01510374546974   -1.18633594213822
H           0.91181637123886   -2.40791310616204    0.19064743189588
O          -1.89972573179111   -0.66425549626252   -0.58958403394440
H          -1.12613767935684    0.05910742575640   -1.74192751125324
H          -1.45351351737898   -1.35563206481681   -0.07415615507907
H          -1.91014728880052    0.12049069861716    0.00891535188840
N           1.76545342895332    0.19977335063764   -1.07266259314717
H           1.06061571697278    0.37650255930970   -1.80194645337597
H           1.79872455283195   -0.82670454672830   -0.85852798233455
H           2.67711223891896    0.54502437652490   -1.35079530019740
H           1.42375974757075    0.74095468183027   -0.16471155737432
