    26
        -50.46983225  Gyration_radius:  2.43246005671 Dipole_moment: 4.305
 S           1.42955387405919    0.81652295226683    1.23427725206994
O           1.83427689092244    0.46179847578888   -0.13582289585997
O           1.32533053960303   -0.36249327916646    2.06743085650052
O           2.62798835399196    1.66402298517215    1.82985344861938
O           0.27024271317550    1.67192961462467    1.23780318982751
H          -1.36812282777544    0.75826219965813    2.61602196944379
H           3.19252507682258    0.98475251969775    2.18354770318190
O          -1.28847793762442   -0.19872932604697    2.65589620397314
H          -0.33079650920913   -0.36343070575849    2.57117544608176
O          -0.59821272467499   -1.65074873578148   -2.54117499550216
H          -0.00828397395891   -2.05181256747295   -1.88407320797188
O           0.75362508285361   -1.94186081060901   -0.15023457018905
H           1.24732320938553   -1.09405075376373   -0.15905884861032
H           0.91424511105592   -2.29971276726853    0.72713090193878
O          -1.70033946054390    1.58466704278676   -0.55975404442373
H          -1.08874612095085    1.82621294641937    0.16387091624987
H          -1.97275439400059    0.66319612100435   -0.33872913670464
O          -1.83764529667408   -0.98949575868562    0.14177472921791
H          -1.88308732370251   -0.80833868327708    1.10334943339586
H          -1.47215914640966   -1.65972910170417   -2.13593434543030
H          -0.95578799607244   -1.38588210643666    0.02698278449571
N           0.19430699877278    0.88746328173290   -2.16569399907584
H          -0.06921750457263   -0.07837056261611   -2.48632961781276
H          -0.65672179084229    1.29474016995100   -1.62948847863032
H           0.94859323925936    0.79611930054557   -1.43741858919526
H           0.49234192712510    1.47496753890609   -2.93540210557780
