    26
        -50.46116946  Gyration_radius:  2.61873709815 Dipole_moment: 2.780
 S          -2.21630609310272    0.75989294459156   -0.38710037538839
O          -2.06329129398473    0.00845286958640   -1.62677335933978
O          -2.74599450402694   -0.00365264793379    0.71209293787830
O          -0.96209106342296    1.42807763858055   -0.02615525837024
O          -3.25920576967122    1.90785911264229   -0.72279691306746
H          -3.16305371193642    1.99877866041727   -1.66575486757610
H          -0.51814709881396    1.00802391659697    1.48071342231225
O          -0.20171001613150    0.69368708418520    2.36538125367128
H          -0.82292486307579    1.05317089686147    3.00040905074321
O           1.57237693890318    0.86923790556333   -0.75883396943278
H           0.72401713190634    1.32612139925932   -0.60793077088748
O          -0.92985558906027   -1.79300952131259    1.45977340816808
H          -1.77369072745265   -1.34976179674413    1.23370032568380
H          -0.48480017818623   -1.12819242889561    2.01170073363096
O           2.36486933102447   -1.21264646343641   -2.55912281840576
H           2.30957382420726   -0.35088961902748   -2.12322880731456
H           3.00353601221693   -1.11994294240634   -3.26661833230834
O           2.45871637451895    0.78145608599547    1.79433428884978
H           2.83747650701900   -0.02062327170614    2.15702275485959
H           2.04252106307916    0.91816002910248    0.09891303029907
H           1.54862306150578    0.84044670299975    2.13977822410756
N           0.06399879820562   -1.35335428741868   -0.94700710259584
H          -0.79637960149781   -0.91650811240239   -1.37627591679471
H           0.75533491604013   -0.56870608861045   -0.83124701931110
H          -0.22588178052320   -1.72287300891913    0.00087109143422
H           0.48228830221540   -2.05320505755761   -1.55584502083136
