    26
        -50.46116915  Gyration_radius:  2.6187245441 Dipole_moment: 2.767
 S          -2.31775356981408   -0.25211606973306   -0.44912628914789
O          -1.82805726327278   -1.01707791183930   -1.58936044810387
O          -2.53661574549780   -1.03056014014620    0.74174785073805
O          -1.45360084084408    0.90309107376800   -0.18786351918663
O          -3.72081257474568    0.32816483557683   -0.91059651799051
H          -3.63808970164157    0.32510140583452   -1.85917881628578
H          -0.93583060695309    0.87867710681663    1.35336276907855
O           1.11684586975857    1.33590107239043   -0.87912643820343
H           0.15127012750619    1.42526474504606   -0.77484518109840
O          -0.55328556896204    0.82533121036860    2.26573953996914
H          -1.29013194731654    0.97500441468467    2.85992610152140
O           2.74804992322402   -0.44262388400714   -2.42162827682490
H           2.33418496779827    0.36757097380767   -2.09297817313759
H           3.31848326525780   -0.18299704701133   -3.14563397172674
O          -0.18346623081497   -1.83069826213315    1.68035239224382
H          -1.12506393212609   -1.79635540345307    1.41225842536376
H          -0.06533827045248   -0.98314235950813    2.14118367239212
O           1.86551139479749    1.91410848374469    1.65364277513518
H           0.99653799086700    1.63985675676696    2.00114115742314
H           2.52159027462608    1.38190493743032    2.10613922509539
H           1.49429409664771    1.67087490179832   -0.03971422088603
N           0.64011052268948   -1.31202445650373   -0.77452320766257
H          -0.30621948555214   -1.31423404777710   -1.24325253482507
H           1.32794200480359   -1.84881422212315   -1.29814293893950
H           0.95160594287779   -0.30699976299401   -0.76466278898992
H           0.48783936717436   -1.65320837076837    0.21513939400582
