    26
        -50.45653335  Gyration_radius:  2.50028110162 Dipole_moment: 9.807
 S          -1.68614614346095   -0.54813644593793    1.67201472243547
O          -2.10477412174522    0.45262653830474    0.68769681635088
O          -2.73680616821211   -1.20816524391673    2.35887049390817
O          -0.72121486527098   -1.49020941269698    1.03880954571516
O          -0.81002411566288    0.23783764270382    2.73687831743215
H          -0.21160626126899    0.83506225742003    2.25280695733227
H          -1.55893907851838   -1.84941279507332   -0.63225961235170
O          -2.01930809040211   -1.29335998640904   -1.27877373780077
H          -2.34792631916304   -0.56593665442804   -0.71407078013808
O           1.04404082494984    1.77655954217689    1.44150684673112
H           1.08882899477365    2.63099679926657    1.87213325191682
O          -0.16281253482706   -0.03724270861259   -2.58763440721873
H          -0.87529724696431   -0.56578732281278   -2.11313553536365
H          -0.43750269481274    0.00105269288976   -3.50466236350230
O           2.28306688519610   -0.67137932821448   -1.74623878986064
H           1.38206514309699   -0.52659618084293   -2.11541771591217
H           2.81796042651477    0.06213680090095   -2.05445208028666
O          -0.42906279231298    1.94663372144921   -0.65030860542083
H          -1.17444695059963    1.50013174494124   -0.18222325208343
H           0.53585244113937    1.91776724728318    0.58189893831411
H          -0.24698159439724    1.37617468957283   -1.41461792454813
N           1.70524566745277   -0.79782096284718    0.87593810942014
H           0.64848094364764   -1.13210986630393    0.94980859090059
H           1.99296106375050   -0.81737480994643   -0.13281292449954
H           1.73097413012841    0.17123787386739    1.22239731621253
H           2.29337241692681   -1.40468584270884    1.43584783232861
