    26
        -50.46809238  Gyration_radius:  2.53144286145 Dipole_moment: 1.569
 S           0.75722719584955   -1.90137147576554   -0.63775530172187
O           1.34942067245447   -0.82628795389458   -1.42529664040453
O           0.70177398503646   -1.57923651592587    0.77109744726784
O          -0.51455955394114   -2.33745736341699   -1.18492494756207
O           1.73031788808262   -3.14392772296079   -0.77824091398998
H           1.47971173621167   -3.45681851762189   -1.64034216827861
H          -1.73618369976539   -1.37884764893629   -0.85723721362602
O           0.86359182889984    2.45319593911509    0.39547474632432
H           1.74201750205270    2.05788458091641    0.20935369844599
O          -2.48265472618073   -0.73180895397734   -0.73821011296540
H          -3.24147857216444   -1.13467733767248   -1.16364065366820
O           2.94987163657470    0.87009671507203   -0.17662475850414
H           2.38759952646441    0.17799593803341   -0.59021246075741
H           3.61786855346921    1.08663061605050   -0.82886440143653
O          -2.65851830510790    0.70941381540165    1.52440982634651
H          -2.65738680153179    0.09420536781068    0.76096472871029
H          -2.89375939954219    1.56881877862016    1.16804825351223
O          -0.50681125734879    1.12295593524953   -1.48416040548399
H           0.18036953590026    0.44139001626074   -1.60553876039975
H          -1.32252799950811    0.63220967444193   -1.31728219563776
H           0.30932066333193    2.17566637979077   -0.36605369757098
N          -0.01062869720879    0.62229702422346    2.01970280877112
H           0.31160746026434   -0.26553292994941    1.55136022208634
H           0.32572469257267    0.64888343552494    2.97533018437373
H           0.37390545241271    1.44917083731882    1.43804040601479
H          -1.05581932729860    0.64515139625457    1.98060231018809
