    26
        -50.45752370  Gyration_radius:  2.39047611135 Dipole_moment: 4.680
 S          -0.26475268651467    0.36079347563183    0.77036572315298
O           0.81985003355353    0.01616749974290    1.65757813005332
O          -0.34095376500853   -0.59142058498246   -0.36043553318890
O          -1.62539312170357    0.21457474346880    1.51676843417156
O          -0.23191538409508    1.72708947402926    0.27948393821654
O          -2.40637256999654    1.88533665270697   -1.16886271911203
H          -1.67874635356280    1.99490852758390   -0.51461779774599
H          -3.10064985112710    1.40694555375179   -0.71161072554073
O           2.56114959618174    0.33002132899199   -0.45451037620979
H           2.59460431488686   -0.62106334635951   -0.63636979685991
H           2.09000579749698    0.40608278868511    0.38969247340797
O           1.71175461064230   -2.29453065941477    0.12214738770786
H           1.93502387465334   -1.96624332667596    0.99742761580909
H           0.90459296071489   -1.81526917874201   -0.13175164892897
O           1.23808742630787    2.06805709503982   -1.94351801156548
H           0.79357586189272    2.38997285515399   -1.13882540986593
H           1.91909260445724    1.45102738256801   -1.58322018969459
O          -0.66435881321463    0.58142515847858   -2.52952737049200
H           0.18936974194075    1.24566493367312   -2.43765498370137
H          -0.52429533869205   -0.03769418503480   -1.70109257948090
H          -1.46055602583764    1.13391368716014   -2.23387543132602
N          -0.90793309496830   -2.11617738875852    2.41309232849376
H          -0.00154433615101   -1.67460902967520    2.53661333403856
H          -1.15889576822194   -2.60049663931209    3.26527927280640
H          -1.56451834073629   -0.69825016982629    1.92980596729628
H          -0.82622137287030   -2.79622664785730    1.66761797854787
