    26
        -50.46824524  Gyration_radius:  2.53361490182 Dipole_moment: 2.077
 S           1.02185446951799    1.60474945441682    0.43274704701094
O           2.09811408365873    0.69689156852169    0.05357422953835
O          -0.14462347773908    1.46507319881823   -0.41746237556840
O           0.70959583905309    1.50858321382443    1.84500736789885
O           1.56577482919854    3.07125872096841    0.18180310542471
H           2.28313854352631    3.15198473031677    0.80293123975849
H          -0.78587018768712    1.00587420459155    2.48366758177490
O          -1.66567636612111    0.64308898635947    2.72102415595274
H          -2.21442446134923    1.39798824251489    2.93576821819848
O           1.55353264943563   -0.94768839236046   -1.98059374692663
H           1.76180500364999   -0.33462895933527   -1.24608070630892
O          -2.15251599058796   -1.97647255947519   -1.62134621357103
H          -1.81051408106975   -1.20495005105026   -2.14385028690188
H          -1.72908263092278   -2.75113374711918   -1.99474647057157
O          -0.85757905927913    0.04952110945009   -2.72474047116794
H           0.02384983756399   -0.36260932568600   -2.64673035765168
H          -0.82040753481201    0.78812537967014   -2.10250276929547
O           1.29567045709973   -1.28200726530159    1.65000198882992
H           2.36267657966866   -1.03879966045435   -2.48541184994337
H           1.76091051616555   -0.65339348054683    1.06420032733724
H           1.18169720278984   -0.80720016632633    2.47826428240782
N          -1.10579664828919   -0.83164456900119    0.54239799284333
H          -0.23092118519735   -1.26944884545103    0.91471219361713
H          -0.81175028234883    0.06150234891285    0.08255145972169
H          -1.59779022630263   -1.42501181558701   -0.17158896172506
H          -1.69166786964150   -0.55965233069683    1.34640302930787
