    26
        -50.44618401  Gyration_radius:  2.52011241699 Dipole_moment: 6.216
 S           0.10122240140686   -0.00961205114297    2.43046991084484
O          -0.59484298949349   -1.34628362912889    2.12618156847892
O           1.19096648680689   -0.18431512160051    3.32443921067401
O           0.46529066540825    0.62525784970380    1.17351865070888
O          -1.02838851991612    0.81185396950483    3.06986946487260
H          -1.63978327738761    0.99091323605262    2.29629539069738
H           1.97423732289188   -0.18524379510158    0.92996012808031
O           2.63197665919177   -0.84099029017343    0.63624304105683
H           3.05744360447352   -1.15043082703861    1.43847795613330
O          -1.57589340372916   -0.65541855571939   -1.05178816648874
H          -2.31938023713067   -1.16400683463136   -1.37916808335442
O          -2.21301563361275    1.23166449921642    0.80985989093657
H          -2.01144930066068    0.46329121762857    0.23312408399220
H          -1.61302674873897    1.92340614174492    0.51772564384507
O           1.59976210378851    1.36902739492712   -1.23305866305258
H           1.12139503500506    1.26733187956306   -0.39737427971371
H           2.37149596203652    0.80300219491839   -1.14507306706428
O           0.38036703257643   -2.23933690240455   -0.01638891766091
H          -0.20552316012631   -1.81205960720623    1.29138344659357
H          -0.20293030504426   -1.66251177043096   -0.54826344343060
H           1.26848901112576   -1.83164589055434    0.00443351000640
N          -0.54515383435969    0.76700469193357   -3.01537885485286
H          -1.22231421395454   -0.11166632597582   -1.82307578988649
H          -0.24163244881424    0.27120250822423   -3.84412164389127
H          -1.04189406612925    1.59627913884176   -3.31546879190178
H           0.29258187421390    1.07328686998185   -2.51282219567740
