    26
        -50.46234738  Gyration_radius:  2.38376882827 Dipole_moment: 6.347
 S           0.60850516035751    1.55523745025992    0.27135355314934
O           1.20197554239266    1.54118540830917    1.59119435968295
O           0.66187331579662    2.78628449388241   -0.46371140169643
O           1.46577640034912    0.49553040251563   -0.60067046076231
O          -0.73908037367677    0.97654463554839    0.29073086167697
H           0.02209900185789    2.11504655332815   -1.83374226653789
H           1.99865280357734   -0.01890515697389    0.06280932071713
O          -0.07719306034263   -2.25789156629602    1.38683903308744
H          -0.45046473275470   -3.03203748913479    1.81071660201223
O          -0.36200433753181    1.74530153054022   -2.66062556241052
H          -0.34411409129120    2.46665971226283   -3.29224226020983
O           2.38844881758074   -0.80439134258166    1.43068284297901
H           1.67706002060549   -1.44763506391581    1.56352378259926
H           2.09227648965654    0.03823674174769    1.82909218395366
O          -2.30634830104545    0.18602095795844   -1.69077077808490
H          -2.15509046674878    0.59324923589434   -0.81956963157190
H          -1.78561513455146    0.77074328094656   -2.28039397342078
O          -0.82463502027602   -0.10568310346270    2.63194738921799
H          -0.12384698685439    0.38926612284146    3.06794668995531
H          -0.94378324562362    0.37769048322475    1.77841457747281
H          -0.40775067847506   -1.47013268899187    1.91196916729590
N          -0.31981525912952   -1.41404544759101   -1.20950233542800
H          -0.35785855362474   -1.84087971500865   -0.25960070363839
H          -1.24029612702756   -0.88561777876256   -1.44093269954109
H           0.40361814940220   -0.65892269212530   -1.15792399403995
H          -0.08238934264098   -2.10085497443535   -1.91753431645157
