    26
        -50.45792475  Gyration_radius:  2.59288073251 Dipole_moment: 3.530
 S          -0.11268566471402   -2.24269115085537    0.19224594657973
O           1.27616211222194   -1.83621264763449   -0.00374238675658
O          -0.95309900540952   -1.09936177616107    0.49463473493695
O          -0.61159687758326   -3.09229456563701   -0.86377942665997
O          -0.12805872878002   -3.13106680992290    1.51706698230750
H           0.17971247324604   -3.97608570042943    1.20435718851921
H          -0.80608198265791   -1.90028972340106   -1.97166005219409
O          -0.75310216151722    1.18294823178388    1.93315443210198
H          -0.93293023764963    0.23004970708209    1.87645682861933
O           0.30773580937942    1.16525932890618   -2.32051343700064
H           0.75881869603499    1.32378490142437   -3.15063057162643
O           1.86924396219840    2.24220793776355    2.43556222803195
H           0.93424613175812    2.01501134981830    2.53819531567088
H           2.15065714416994    2.62367513301065    3.26755426659333
O          -1.01421203627764   -1.10770560059567   -2.51602666903396
H          -0.13508988210161    0.28360395756312   -2.41538251544746
H          -1.95385088795212   -0.95241196664684   -2.39165144571195
O          -1.97248232125055    1.25770600735439   -0.49169318047426
H          -1.77094422389385    0.32987859183878   -0.28222521247462
H          -1.37355620326210    1.56612591320672    1.28549343668250
H          -1.37112582081867    1.50421369019354   -1.20232382172560
N           1.30419354820556    0.73806736139159    0.16710850978404
H           2.13293246955803    1.19011396865484    0.54956921501732
H           0.50696925266781    0.95270223896312    0.80951863988573
H           1.07150113328227    1.06000959763924   -0.79235081752636
H           1.39664332113129   -0.32723797530131    0.13106183190833
