    26
        -50.44969261  Gyration_radius:  2.45364467202 Dipole_moment: 6.639
 S          -0.54120991877151    1.91234070551037   -0.90184729031995
O          -0.20096478944525    1.91202528576509    0.51003939240718
O          -0.06441074138737    3.02421970933184   -1.64079894627167
O           0.01896383181646    0.58286304064555   -1.50661505812298
O          -2.03658051711042    1.70921973763456   -1.07107268091615
H          -2.27234884586946    0.88582579679500   -0.49356631401562
H           1.00200294223320    0.51870265552913   -1.31719488701309
O          -0.27446178647062   -1.92068502515253    0.65580664537972
H          -0.48129001702282   -2.79481519978221    0.98987602362026
O           2.50183184428961    0.39131403699877   -0.82063206131919
H           2.90491202618915    1.26165786097258   -0.83848752152362
O          -1.72126413543967    1.17568645726833    2.60680633865467
H          -1.20053153446979    1.65705833132908    1.93843827842877
H          -1.09028239856609    0.84549261697065    3.24983508657678
O          -2.44180611183985   -0.26063449769869    0.44658148557915
H          -1.66972083372447   -0.86102834154400    0.43003969776665
H          -2.40486741399950    0.18452515519197    1.31921874810399
O           1.43267226053221    0.05720284827078    1.53115492200825
H           2.27360478783190    0.20380507876216    0.13488259991911
H           0.86068562190225    0.81841623692263    1.31634944308842
H           0.87030783259833   -0.72319264953748    1.38692595796584
N           0.96982225050244   -2.18698826950165   -1.68493516658074
H           0.39451243957296   -1.58466053594163   -2.26267115248665
H           1.85788335651059   -1.71336592607570   -1.56167132272460
H           0.17500628960647   -2.04590148493324   -0.22813388429795
H           1.13753358053250   -3.04908362373340   -2.18832836390655
