    26
        -50.45705292  Gyration_radius:  2.42415185906 Dipole_moment: 8.873
 S          -0.03678087843892    1.57984625906769   -1.54577996588154
O          -0.38561081523531    2.75130940142224   -0.77250116894018
O           0.06443311471308    1.70604964054997   -2.96230811795806
O           1.43924236923013    1.15359494343869   -1.07165042069741
O          -0.88008782720705    0.42803783531120   -1.14373476683831
H          -1.85307302517677    0.11343306576627    0.01649661708960
H           1.45021042938017    1.14752446448049   -0.10110173129908
O           1.51010146607720    0.58157633030254    1.57632028147104
H           2.16062698027654    1.10484831417441    2.04592098205551
O          -2.42196845697830   -0.14864147667181    0.79718609446456
H          -3.32008789324221   -0.17638720551139    0.46440057533542
O           0.66213468344151   -1.09295444665834   -2.49889058310399
H           1.16852920324683   -0.42947013042842   -2.97838881098681
H          -0.10310425346110   -0.57033633533583   -2.15961439369429
O          -1.00105555262567   -2.34347682992647    1.28148344889004
H          -1.60056006290427   -1.58598664653341    1.07471152389156
H          -0.89657104358852   -2.33764382591087    2.23477142542871
O          -0.68616005460553    1.88158776393380    1.66497839055112
H          -1.44243163102865    1.28200248898865    1.59414787365581
H           0.62324175845575    1.05433575828337    1.71308538542276
H          -0.62353191058338    2.32881416588175    0.78111680478958
N           1.25244586924554   -1.69590879388791    0.00019873579636
H           1.09011735279065   -1.45108075819385   -1.03496963710198
H           1.51283032167222   -0.84025569977812    0.51866825078250
H           0.34327931554891   -2.03594089077802    0.42136245574817
H           1.97383053100044   -2.40487740198258    0.08409074113432
