    26
        -50.45178235  Gyration_radius:  2.75813604938 Dipole_moment: 6.375
 S           0.45377757006862   -2.25714548611170   -1.81875502856848
O           1.18973503329443   -1.21952517066754   -2.54231007684284
O           1.26114728063451   -3.04237669365043   -0.93209102016161
O          -0.71861463669929   -1.66807516377251   -1.14890308669018
O          -0.12475866125699   -3.22668715691201   -2.93591349330925
H          -0.50381198440672   -2.63528043403032   -3.58063653422055
H          -0.01474883896499   -1.42746487505222    0.31735324701099
O          -1.57675599264210    1.70496646646006    1.57702680020268
H          -2.37932456629149    2.02587170664948    1.99000363138227
O           0.69804362422855   -1.26429057326718    0.98165783755975
H           1.28199231744534   -2.01671186364114    0.81381253306027
O          -1.51390447999028    0.89679339733180   -1.08155105705023
H          -1.74611804692038    1.10053150414402   -0.16029305547320
H          -1.46631542339594   -0.07655736817988   -1.15787989048292
O           0.80518032314434    2.94503918622234    0.72139428327723
H           0.71336301957681    3.88805360588879    0.85917795258952
H          -0.03583164562572    2.54850376424954    1.00194693416329
O          -0.52401270397173   -0.18813307273030    3.11674741423789
H          -0.10424840421652   -0.72240191547423    2.41148407902300
H           0.18618669691568    0.09326759320032    3.69613821817675
H          -1.22933785425106    0.99027956043377    2.16401743879857
N           1.10416837465180    0.73417844548304   -0.86067295824828
H           1.31247597658656    0.04520484724895   -1.64488869603184
H           0.08384242042636    1.00993313400797   -0.99433601897616
H           1.15834496573701    0.19800630043398    0.02310847269518
H           1.68952561600500    1.56402027166918   -0.81563792612728
