    26
        -50.45792482  Gyration_radius:  2.59246334991 Dipole_moment: 3.520
 S          -0.09094685509794    0.24067031703526    2.23718909347990
O          -0.97681649408227   -0.84304231961956    1.82084843239620
O           0.78799461106069    0.64061951749818    1.15432208181745
O          -0.78739688046273    1.33084293990454    2.87934321096946
O           0.87284779309706   -0.38059929531003    3.34624880868365
H           0.32963205461268   -0.36195837398209    4.12799247787964
H          -1.41637168287495    1.96736697282754    1.50553207905097
O           2.16228980858559   -0.57719918870576   -0.82960776841227
H           2.08017578397881   -0.28748036610995    0.09415518334776
O          -1.90354104244652    0.89571560442213   -1.55780778965595
H          -2.81177662287691    0.96415871128868   -1.85455402496180
O          -1.63278615067167    2.35014053110204    0.62561481864066
H          -1.85339387312838    1.41218202521521   -0.71354445155928
H          -0.98171552600182    3.04139042972985    0.48127443112526
O           1.24648567613187   -3.14632282857050   -1.73193005029570
H           1.81963377090104   -3.88385757149720   -1.94269011325846
H           1.82417383916788   -2.40352594831559   -1.50640827098007
O           0.88389063365590    1.76046329123789   -1.35727343392702
H           2.04067506694442    0.24846631111109   -1.33402008502726
H           0.00030689128566    1.62851005047185   -1.71671632068907
H           0.81273881768407    1.58352215324131   -0.40392083091934
N          -0.49615527221110   -1.25239403835716   -0.68081543945099
H          -0.72521875519800   -1.18761646975155    0.36234746645056
H          -0.58815407523588   -2.19987655103869   -1.04307171880853
H          -1.10247560010345   -0.56776526002354   -1.17254242232887
H           0.50590408334008   -0.97241063384396   -0.78996537351561
