    26
        -50.44895191  Gyration_radius:  2.42722586082 Dipole_moment: 9.112
 S          -0.91912915088578    0.54892456533996   -1.95383116726369
O          -1.04185673562582    0.78424963150539   -0.51086029427886
O          -1.62963149444473    1.47167984671492   -2.76874787891038
O           0.68060619484644    0.76071216017783   -2.22137536874747
O          -1.09700411002241   -0.86475993039774   -2.25129695030567
H          -1.04886501253163   -1.67463648900358   -0.95039333250683
H           0.90282842143645    1.55385295654087   -1.67933359943895
O          -0.79157119242322   -2.26000888184974   -0.16802432175300
H          -1.23744862050874   -3.09664002870649   -0.30800167730035
O           1.81707930496354    0.27074253964004    1.53892279753950
H           2.39002672333156    0.15133601621637    2.29732942655033
O          -2.41041884107364    1.06767888825961    1.74030374489809
H          -2.43058387803809    2.00960961970523    1.91543054765367
H          -2.07746839492233    0.96983428625880    0.82616627564170
O           0.97428431686140    2.39334590076987   -0.19306782098513
H           0.07694858760452    2.00509053059468   -0.13566006244115
H           1.48434215906941    1.91420937591348    0.47347247840477
O          -0.45683723994548   -0.73997085119262    2.18737783467958
H           0.89844102802764   -0.03851712178266    1.83451653833451
H          -1.17470376709949   -0.07539722143369    2.21761069856835
H          -0.69105105604273   -1.30374729542791    1.43327365099195
N           1.58220566808592   -1.18836705414784   -0.66936468580230
H           1.25388604404018   -0.49187155906706   -1.39381215490997
H           1.83026113201926   -0.63990853460441    0.19895021806077
H           0.75154816192410   -1.79355171534634   -0.44285709097199
H           2.36411173136533   -1.73388964467800   -1.01672780570691
