    26
        -50.45788905  Gyration_radius:  2.41146624338 Dipole_moment: 7.660
 S          -0.99875591055344   -0.83667400487793    1.85626215915564
O          -0.88313954487234    0.59178017731733    1.43321597895038
O          -2.26696197400301   -1.12455916072488    2.43563157919319
O          -0.84896997019322   -1.65341795049108    0.50560690309130
O           0.18921284219680   -1.21595046136285    2.59928063505947
H           1.22780105120594   -1.48260226013658    1.46988627007239
H          -1.51893059674066   -1.34472153684907   -0.14414137356728
O           1.01107424328331    1.71364302577369   -1.65563025331911
H           1.40737147079520    2.04221059991034   -2.46301938314151
O           1.93998864625639   -1.47405390438916    0.76287012123486
H           2.48478412929234   -2.24464134499398    0.92701819283029
O          -1.70050394800739    1.75008166596664   -0.82156452688563
H          -0.82583546690411    1.94647103990143   -1.18753107134726
H          -1.53663789116516    1.45982571517942    0.09869773087645
O          -2.27660033296211   -0.71272080904504   -1.48875542624245
H          -2.13852596012763    0.26368332249235   -1.34197229800849
H          -3.22129447349303   -0.86226675479736   -1.43098888534315
O           0.73991224525082   -0.88146395391093   -1.75573742563076
H           0.90843435617263    0.72634506711113   -1.77292296003328
H           1.04209842904995   -1.24646158116097   -0.90593944647017
H          -0.19901961361027   -1.09270634677527   -1.81602559774157
N           1.52916272950062    1.15994070086951    0.94447443888980
H           0.47512746985475    0.94358029584007    1.23177549295126
H           1.98494900454691    0.22899423311302    0.89296009843752
H           1.50024630984461    1.58423354320376   -0.00036529244395
H           1.97501273538677    1.76145070276114    1.62691435947240
