    26
        -50.44824998  Gyration_radius:  2.58175521788 Dipole_moment: 9.089
 S           1.56546403673581   -2.05215994528292    0.93130690037642
O           1.30336351709225   -1.38833367898192    2.21644401749015
O           2.66997186618892   -2.94127799680333    0.90165306410495
O           0.25149521677167   -2.91632390231405    0.64083840381016
O           1.56756646671569   -1.03319595967936   -0.13906343864316
H           0.46204885438627   -1.15289878895854   -1.21013135409485
H          -0.49707422800919   -2.32021076562039    0.77608108393789
O          -0.34122267514322   -1.21300935523262   -1.81535482412793
H          -0.21867582048111   -2.01939923602211   -2.31837455773562
O           1.45854904282375    1.62777955504156   -0.35083949910569
H           1.85345742586563    0.73673591698900   -0.34431053962629
O          -1.09581875157869    2.98749579888613    0.15190633237766
H          -1.41428976948388    3.86295533339323   -0.07219409889533
H          -0.13944860350827    3.00082596178016    0.02291781666133
O          -1.86347691977964   -1.10252314867821    0.34385481482879
H          -2.72538007067182   -1.51053996249586    0.25231972561497
H          -1.43417407973492   -1.12675930669839   -0.54490222475233
O          -0.43039397506619    1.50690591936117   -2.26436963026804
H          -1.11271118211962    1.79176643647768   -1.64537259552803
H           0.94583215480747    1.65657840014995   -1.18862690951918
H          -0.46600336065508    0.53702262557489   -2.29562972636941
N          -0.08680724023439    0.63486474572789    1.60212531007091
H          -0.94088950181655    0.24327159094240    1.19043122972465
H           0.53188283574515   -0.21005082204516    1.94704866562704
H           0.47408278546660    1.12893735050840    0.85520738509568
H          -0.31734799429643    1.27154323401944    2.35703463897032
