    26
        -50.45614400  Gyration_radius:  2.5669146766 Dipole_moment: 6.151
 S           1.13724336581135   -0.11606866201692   -0.39775153452621
O           1.25827745851693   -1.46775160582386    0.08287288906488
O           1.78297123211278    0.11258614846548   -1.69316657140759
O          -0.39828259386530    0.17091488811903   -0.63756872271493
O           1.53900834712176    0.91456209263819    0.55891422261711
O          -0.30452340500670   -1.89267184897079    2.26453142585601
H          -0.38321062778452   -0.97164099826089    2.57452388991147
H           0.35385514370578   -1.85403764817894    1.54845025125125
O           0.03015248073318    0.77459380103987    2.76590361704972
H           0.55529264107631    0.86479610549332    1.94598266960689
H           0.64820903002225    0.88973291121009    3.49020887865133
O          -2.37672842341849   -2.80011392075470    0.90293633548458
H          -2.47549793102742   -3.71965092770433    1.15400787764260
H          -1.67874422120089   -2.42893308292064    1.50174697992591
O          -1.10794274005818    2.56520597452440   -1.70294525050706
H          -1.05312471613120    1.73014633542853   -1.19959238527936
H          -1.63814356461327    2.37529783669470   -2.47917718224680
O          -1.01127449361892   -2.18582049213506   -1.27712547171908
H          -0.12854462083140   -2.43833340601427   -0.97083484162254
H          -1.63320259369338   -2.45621930473604   -0.55257605350510
H          -0.77531966797000   -0.72359838033911   -0.95980274715258
N           1.54600352102005    2.59210779723757   -1.40720260316170
H           0.55654749299283    2.83585970878874   -1.63733281802262
H           1.59899019708200    2.34381612009869   -0.39339068748673
H           1.74316708147141    1.58540141510213   -1.79177258541355
H           2.21482160754228    3.29981914300534   -1.68983959230231
