    26
        -50.46691630  Gyration_radius:  2.4414677505 Dipole_moment: 5.057
 S           0.37132150542437    1.36507394244581   -1.19396463605329
O           0.43840530513449   -0.12266917567997   -1.17487118625688
O           1.66020500076572    1.92129019931637   -0.91910005324813
O          -0.08890935389690    1.76612517132552   -2.62350094654174
O          -0.66406214769424    1.80844700125848   -0.25739304984560
H          -2.03036480945170    0.96196221990073   -0.14515709730477
H          -0.84349780771580    1.15742917826138   -2.81879591881030
O           1.50660214391293   -2.57339130454275    1.71658207756258
H           1.44980415769949   -2.76690621166009    2.65369648760469
O          -2.82077100280048    0.36190502594239   -0.13924691606992
H          -3.57665981234301    0.92431602260638    0.03469665244372
O           0.49498252900777    0.99364106321069    1.99127914173365
H           0.12310333870214    1.55972044049898    1.28604920402417
H          -0.07104773703114    0.19995780959074    1.96934875304080
O          -1.83237570108418   -0.19015218026830   -2.64522477895227
H          -2.41420017451996   -0.06871844442248   -1.87278664451892
H          -1.05016559393293   -0.64282049711790   -2.29912666046651
O          -0.75902161393001   -1.21523270056066    0.93539542161240
H           0.61268029519086   -2.30813968063040    1.43592299615508
H          -1.69642945547292   -1.01453973177313    0.81728229615045
H          -0.34119929431630   -0.87856926634140    0.11167777193031
N           2.35080987193654   -0.25940389628313    0.63073697957860
H           1.77640730549856   -0.25969690911661   -0.25212635268517
H           2.34468616888059   -1.21809994585278    1.03724510661443
H           3.27289624754266    0.11920334450386    0.44318409005813
H           1.78680062453888    0.37926853537615    1.27819725225085
