    26
        -50.44151836  Gyration_radius:  2.61045201177 Dipole_moment: 5.294
 S          -1.89196994263004   -0.78662294257361   -1.98794716791751
O          -0.58820195492542   -0.24008778887602   -2.26742594966440
O          -2.60857434750937   -1.36308962001340   -3.06281324029180
O          -1.73201659985067   -1.82064399405481   -0.82723928860157
O          -2.76367991949795    0.31281793490992   -1.32682157528142
H          -2.21120172532421    0.71790996269177   -0.60723892667395
H          -0.77871058743391   -1.92000897565627   -0.54805441501881
O           0.73256937962463   -2.16310525297892   -0.06695260797522
H           1.06480095190526   -2.92833121163866   -0.53967561368709
O          -1.35630472372028    1.32842795837759    0.60961668277931
H          -1.94408063654419    1.84371062126287    1.16483740844072
O           2.36999991740838    0.75379893139678    1.84407740925896
H           2.06727723775536    1.51651211850179    1.33447607366913
H           2.84778064317616    0.19755677934365    1.22362865181214
O           1.05717049173258    2.30918440648572   -0.12684290033751
H           0.97090934161290    2.90710408853791   -0.87092341059753
H           0.15145479777432    2.00785729786835    0.09605623262605
O           1.84532288183483   -0.09943285782038   -1.21210940703500
H           1.22727080642656   -1.37447404793290   -0.43222804112668
H           1.10756002930056   -0.13773887931568   -1.84742747446376
H           1.71452868723755    0.75906207186912   -0.76950566602803
N          -0.24226831104310   -0.42665827398129    2.11577917963163
H          -0.64644049597229   -0.62964118921058    3.02026859333644
H          -0.95316248805767    0.58184063972954    1.21931262867137
H           0.69696742890210   -0.04752520485780    2.25643084752651
H          -0.13700087218626   -1.29842256205270    1.60872195695641
