    26
        -50.46841974  Gyration_radius:  2.39228291197 Dipole_moment: 0.961
 S          -0.26255828670055   -1.56973127097829   -1.00643160249607
O          -0.50017075574630   -1.56820166110531    0.43074510299219
O           0.41258817694561   -2.74043781614593   -1.48858368137751
O          -1.72464770304347   -1.59512978091793   -1.67281440846093
O           0.27700741085687   -0.29462270665538   -1.45787442001096
H          -0.96872577849796    0.82632948323107   -1.61670590145386
H          -1.93746443882770   -2.52036797573489   -1.75326701366599
O          -1.71353456419668    1.46355753142678   -1.60348137001957
H          -2.31330034452982    1.16626458778469   -2.28855676862082
O           0.88445972356385   -0.51168453874137    2.43213781416846
H           0.42242412617537   -1.06424172899413    1.76666314437982
O          -0.31729807065128    2.79899664267066    0.52832615422272
H          -0.68013812022411    2.86635768083279   -0.36302802157550
H          -0.90047996111703    2.13474340106118    0.95965411210812
O           2.36494002965498   -1.61303080633218   -0.03089894092233
H           1.82339520056540   -2.12368019846738   -0.65092737186291
H           2.38282013434291   -2.11441445143966    0.78738689834767
O          -1.85614604503293    0.66611275403148    1.06896197601051
H          -1.41525992607184   -0.18854803546836    0.90074951141748
H           0.18494120875250   -0.07411824757655    2.92420310506821
H          -2.24539251797590    0.90589898308769    0.21577402140454
N           1.64413179528099    1.05078925616646    0.38623808186915
H           1.00645197627814    1.89744125574990    0.45227909062598
H           1.53766894949062    0.47156973382669    1.25779108367652
H           1.27632413328140    0.45442902701491   -0.39610254530160
H           2.61796365837398    1.27571890052670    0.21776196014065
