    26
        -50.45061342  Gyration_radius:  2.44869204933 Dipole_moment: 4.860
 S          -0.48697028292405   -0.45015085176275    1.95921740041444
O          -1.32585487231903   -0.77917375742536    0.82136003893822
O          -0.59116323137337   -1.32626907054284    3.06789687022364
O           0.96482190300740   -0.35227968009394    1.46567895770994
O          -0.80455697309014    0.99817970738535    2.39540402590648
H          -0.68519473660586    1.53482726277722    1.56853660223939
H           1.08388941062365   -0.67184734755834    0.44525739675846
O           1.21795576507135   -1.07947126377209   -0.88709990250701
H           0.69668273230758   -1.90689064006474   -0.90353251633088
O          -0.28222348878837    2.33901471609708    0.22708741146938
H          -0.46583377616809    3.27722468081876    0.30489814628619
O          -0.58378123323053   -3.03245779673229   -0.35976811203135
H          -0.96884560461015   -2.28849286152544    0.14885856044702
H          -0.41078673683637   -3.73018068302690    0.27361507052963
O          -2.46298047024987   -0.91791532166481   -1.66302540315580
H          -2.31593082533213   -0.77826212902488   -0.71495711595041
H          -2.21717263356191   -1.83267846653353   -1.82658748735450
O          -0.32462227883446    0.66773534761380   -2.05003623239461
H          -0.47220900262941    1.31813431172117   -1.34901148811388
H           0.68276478857764   -0.41170860611444   -1.41155988384476
H          -1.15833294363383    0.15340881259210   -2.10409328981957
N           2.30609392698570    1.88283739745561    0.10407530824396
H           3.04264298406717    2.56114312201633    0.25121811056319
H           2.36184931133859    1.17934686534675    0.83365075781763
H           0.72252223740980    2.23302196299500    0.18002776627614
H           2.47723605078743    1.41290429900702   -0.77711098233304
