    26
        -50.46648411  Gyration_radius:  2.45854840198 Dipole_moment: 1.130
 S          -0.11132896392181   -1.43755505221785    0.99104446728026
O          -1.25085411784036   -1.17242726122667    0.12226364021093
O          -0.35121905173495   -1.13689421068100    2.37559077618711
O           0.13644183592560   -3.01563834414721    0.92338016003651
O           1.09950165463806   -0.83250801585534    0.44987405577010
H           1.38133767490192   -1.84341026460629   -0.92536022275135
H          -0.07616923246205   -3.30392542238912    1.80565777665645
O          -2.19923712124323    1.26153750248892    0.32102502503015
H          -1.97337048600209    0.30260159766689    0.33980057562698
O           1.27981288008444   -2.39702906227013   -1.72049602195876
H           0.97421199910646   -3.24698531397352   -1.39785262153427
O           1.72023437518812    2.98364341607671    0.39425581953430
H           1.18191053319346    2.54823073008698    1.08274401991270
H           2.61913475918398    2.98285035910602    0.72421131476235
O           0.03932573610820    1.53157719604397    2.03566919476723
H           0.02819175199056    0.59781504578202    2.30344260128610
H          -0.87186076935219    1.74157786649460    1.80361760817575
O          -0.65393842761459   -0.67586512365692   -2.54005483296078
H          -1.11234504265485   -0.93991828976380   -1.72431134494782
H          -3.07427669670164    1.32755628747711   -0.06473473613054
H           0.08601017050834   -1.30858969302633   -2.59416718616248
N           0.23429591279539    1.23580994935283   -0.96995876263227
H           0.01350665925486    0.73847558969860   -1.86793847398098
H           0.87773773132153    2.03764257710438   -0.99172490531136
H          -0.65994567436217    1.51847356879691   -0.52838939569416
H           0.66289189966139    0.50295437761646   -0.34758853117747
