    26
        -50.46919478  Gyration_radius:  2.46737322188 Dipole_moment: 3.373
 S          -1.85229492101925   -1.49103542016418   -0.32104449304025
O          -0.78519613988061   -1.65814317942099    0.65754291596643
O          -2.53039871333731   -2.68873829393813   -0.69230002840178
O          -2.95027163969335   -0.55200986126140    0.37857151928947
O          -1.37025587480925   -0.67528904525172   -1.44560944788382
H          -1.38803800146731    0.83362359905844   -0.82027426977383
H          -3.60350856547746   -1.20409168808662    0.60425009742643
O          -1.31720443490519    1.72891180651942   -0.41079776354097
H          -2.19368148952307    2.11139879850941   -0.46852128402267
O           1.89204512220944   -1.65908453831695    0.42531581729528
H           0.95734814356223   -1.86014358946907    0.62853785321523
O           1.41434973166449    2.00245996047984   -0.81318801329524
H           1.75500498413303    1.73926158179142    0.06259003213725
H           0.46344259369136    2.15493135935973   -0.68854595437314
O           2.00478754987685    0.83554860209545    1.59524585331107
H           2.45428724843556    1.13411156078231    2.38583906178907
H           1.03163998878910    0.76906025589647    1.82990339906691
O          -0.55188691686884    0.61521199362483    1.98440528400441
H           2.10333619808618   -0.86830378608854    0.95502466260234
H          -0.92972397032659    1.19300106978432    1.29990425053377
H          -0.70049020958713   -0.28954358578027    1.63870691166897
N           1.23548531607543   -0.44051145896548   -1.79019472483066
H           1.39831124622028    0.58320098603909   -1.54968473539860
H           1.63033948845975   -0.69295052527510   -2.68834432851923
H           1.63798928048770   -1.02225383533800   -0.98621903122373
H           0.19458399523216   -0.59862277657569   -1.77111360399015
