    26
        -50.44212375  Gyration_radius:  2.57094676617 Dipole_moment: 8.011
 S           0.70799168446404    1.70286873198640    1.90971843314244
O          -0.67020333429446    1.75192127721297    1.51106695078952
O           1.04638583284526    2.15546597628015    3.20674452663738
O           1.21132869064165    0.23163643413421    1.67944511777780
O           1.57568822234330    2.46041410454319    0.87021691042648
H           1.37702284426970    2.11482169574689   -0.04263404669317
H           0.44017876294886   -0.41010838913231    1.79964122249565
O           1.29558619890888    1.47032323824607   -1.53569031712155
H           2.02505154776481    1.85703426336645   -2.02420862874855
O          -2.15417185499350   -1.27822421549913   -0.47326840495595
H          -3.09739624324877   -1.34407377311241   -0.32223924226588
O          -0.62269874085884   -1.54624689927299    1.75189465944211
H          -0.15796051615675   -2.32958584326336    1.43835728201764
H          -1.26503910602675   -1.33010093067449    1.04172020669261
O           0.07946030192419   -2.79095659113469   -0.82144440827430
H           0.07214129228865   -3.35125873868042   -1.59820324982886
H          -0.76369186901337   -2.30023384208654   -0.81815179146214
O           2.05496908218894   -0.89039235412172   -0.71770302677949
H           2.06113532855051   -0.63348283582498    0.21529036878924
H           1.39624720398584   -1.60730980566921   -0.78926761304633
H           1.57247284532698    0.53535711846874   -1.32248648511537
N          -1.64338012778291    1.19731287599916   -1.05919584897261
H          -0.79812200567996    1.32753306260144   -1.60433721784827
H          -2.35080651732232    1.82103896235861   -1.42587825491522
H          -1.97283402223599   -0.31658162712545   -0.76047992132226
H          -1.41935551088488    1.50282809463414   -0.10890725090991
