    26
        -50.46919488  Gyration_radius:  2.46733279838 Dipole_moment: 3.374
 S           0.45663325038366   -2.25382669564707    0.68404677239411
O          -0.06679260300161   -1.28817403927689    1.66181136336008
O           1.19606699307785   -3.33682090107010    1.24315261009021
O          -0.86897624422578   -2.89733666294119    0.04713584469070
O           1.11910523859324   -1.54292316767052   -0.40217130549682
H          -1.39804225006706   -0.71374723589006    0.90939354144358
H          -0.59079216563060   -3.80260048802200   -0.03055312885706
O          -2.14954183405716   -0.30761914711374    0.41487944982837
H          -2.89502235178813   -0.89473147604485    0.54666327876146
O           0.22279725856259    1.89494425127194   -1.90333591595509
H           0.18335677728592    2.30456647853925   -2.76759371075928
O           2.35509922247943    0.84102531740660   -0.50798835687791
H           2.10444260626462   -0.10147765402931   -0.57350033198640
H           1.76435422637522    1.30525718178184   -1.12933051633234
O          -1.13738974462671    2.27539179642863    0.44502297721878
H          -0.72677091881591    2.32083567741269   -0.43907718513586
H          -1.70938754655048    1.49084534379226    0.42743753797298
O          -0.75744817767420   -0.50800600602949   -1.94827671141951
H          -0.03215012166904   -0.99697986521831   -1.50661893673653
H          -1.45908835733029   -0.47215370016088   -1.27632075629357
H          -0.16406631388832    0.97519456900110   -2.00722477188256
N           0.92301210592981    1.15805459062404    1.65374530306564
H           1.30975504621510    1.52726710552516    2.51421834480380
H           0.58193319190768    0.16981874990413    1.77993217100456
H           0.09650640861234    1.72932803167348    1.30339796820155
H           1.64240633363161    1.12386793576706    0.86115447487821
