    26
        -50.45614431  Gyration_radius:  2.56751996586 Dipole_moment: 6.157
 S          -0.60044208681190   -0.77458576973318    0.70902189033207
O           0.13048721031030   -1.91592418436389    0.22355260705471
O           0.30935897753795    0.50077421737592    0.50054095521161
O          -1.81699704486944   -0.46055852727039   -0.03976348138698
O          -0.88441675755599   -0.81949815215145    2.14573767776681
O          -1.22233608754953    0.06823901464180   -2.59617113012892
H          -1.44476849422520   -0.07691230556029   -1.65511238681829
H          -1.90167549745730   -0.38281647110756   -3.10108617675310
O           0.96224882635846   -1.55672489740961   -2.33838753071215
H           0.30762151828208   -0.88968184367601   -2.61586473119160
H           0.65926509943522   -1.84515616715305   -1.45935995065387
O           3.33478605835694   -0.59714109986656   -1.68829448518464
H           2.45681281001484   -0.89691686046781   -2.03868890580673
H           3.97324161783476   -1.24297159774313   -1.99433888502959
O          -0.59889436745120    2.89000133584036    1.41707546022824
H           0.08361215108113    3.24406331621627    1.99028621288852
H          -0.18282846596543    2.16233369092848    0.91601556811102
O           2.50631822962600   -0.68627689010373    0.82179884710529
H           1.26131452685057    0.16038394342268    0.65558528167710
H           2.00209198270580   -1.51126086837948    0.77789954175918
H           2.94165242650042   -0.59145650458402   -0.06498705419719
N          -2.50120628914400    1.08293459954957    1.91612022480393
H          -2.61021761342427    0.69356386406612    0.95206100818007
H          -3.37780462081387    1.19524059365557    2.41308420765584
H          -1.84878501126305    0.28947137605280    2.29634378643946
H          -1.93843908836532    1.96087618783809    1.85693144865741
