    26
        -50.46060854  Gyration_radius:  2.58792595378 Dipole_moment: 5.780
 S          -0.29975657618675   -0.61404362512183    0.11708292336028
O           0.40982588859482    0.28869761413305   -0.78176980516664
O           0.43801014782184   -1.82068131800187    0.41972360063206
O          -0.56485319642769    0.16115881403258    1.43976782464994
O          -1.63571502625786   -0.89614585288311   -0.44530420671211
O           2.81817626104796   -0.78004244636824   -0.14354035563649
H           2.34172497103817   -0.05635940796144   -0.57089216559709
H           2.10377618428222   -1.41966665511862    0.03007032347114
O          -2.63067600029884    1.53516472356370    0.16920896358253
H          -2.39857954669603    0.59587829377385    0.04411023241518
H          -2.29818301255915    1.75120928824987    1.04389673004735
O           3.27100433842506   -0.16496768537109    2.41474661890181
H           3.19995883291137   -0.31793252252586    1.44260988079277
H           4.07762384122870   -0.59964274312851    2.69547316370638
O          -1.00169167473844    2.23243901425888   -1.82659615344504
H          -0.27677027342904    1.70229077373072   -1.42156363183279
H          -1.54803345171678    1.06967052843295   -2.56337347694101
H          -1.66789610395617    2.29414131166132   -1.10694004043542
O           0.88011387856402   -1.22842592209670    2.99457860396558
H          -0.03976745208497   -0.30886105656169    2.16670768962437
H           0.86399627466333   -1.87461044296828    2.27157951186151
H           1.76260388363175   -0.79350496156814    2.94341439792847
N          -1.88733794976552    0.04843413074610   -2.82166093729034
H          -2.84902975543242    0.03618688374228   -3.14586531752842
H          -1.80270599554690   -0.45907278920048   -1.86673643447587
H          -1.26581846710892   -0.38131394748127   -3.49872791986802
