    26
        -50.46648437  Gyration_radius:  2.45823317595 Dipole_moment: 1.184
 S           0.47817245537872   -0.27242114887117   -1.66047406115491
O          -0.09919059312838    1.03382786800482   -1.36877328484516
O          -0.41328648574316   -1.15951593919705   -2.35552641291557
O           1.69544073708812   -0.00226936703738   -2.66122046432166
O           1.08252295442735   -0.84653472436056   -0.46499982248861
H           2.46126746059869    0.17980843063972   -0.27041862118828
H           1.38535551592678   -0.37299632750654   -3.48164628533450
O          -2.37865953444505    0.92878680172083   -0.08294223864861
H          -1.61391759983224    0.99997170566488   -0.70041351588211
O           3.06613602796406    0.94243856778914   -0.23085621311042
H           3.30189330933900    1.12408407524022   -1.14256849732643
O          -1.76429485060258   -1.83585783288115   -0.09577883462165
H          -2.40371327093765   -1.11639636686608   -0.13777925995255
H          -1.26789145026904   -1.78825385685032   -0.92945011547248
O          -0.97550814134390   -2.15699170063178    2.53178004564208
H          -1.30995402769450   -2.17552214371826    1.61466253667657
H          -0.52339857321254   -2.99087158576945    2.66305605932793
O           1.00384894020151    2.38840901551685    0.78376368867283
H          -2.84139608322462    1.76722163131277   -0.12497779538779
H           1.91890838398191    2.08796130940350    0.63147546362296
H           0.56011135883244    2.18312867823067   -0.05671924098368
N          -0.27468540654236    0.22378525096865    1.54914743894150
H          -1.21354806874912    0.43843947017651    1.16565596284423
H           0.25533454895539    1.12566956739682    1.64237856238444
H          -0.36816324868685   -0.38420064492091    2.37293809814871
H           0.23861565168399   -0.32170074354947    0.80968680742179
