    26
        -50.45614417  Gyration_radius:  2.56711612891 Dipole_moment: 6.152
 S           0.65153356370690   -0.69246463945940    0.74911797091401
O           0.52937204437821    0.35334524988276    1.76422557491741
O           0.43699717905015   -2.01178823013538    1.34937446599389
O          -0.59540738596290   -0.45147196186505   -0.19152402109498
O           1.83531953739719   -0.60872693191859   -0.06593853768507
O          -3.07884301504771   -0.67126759837819    0.88380829904871
H          -3.55721905537856   -1.30564353191618    0.34662091632421
H          -2.28660028403533   -0.42221784820833    0.37001483849824
O           1.92772663503594    1.72557707418889   -1.45419801892803
H           1.34982780597424    2.26312766811356   -0.88190071718252
H           2.05865019503728    0.89722374744867   -0.95980436332090
O           0.46488718074245    2.76744823610046    0.60840145636997
H           1.02892887081298    3.31449449392970    1.15840480684980
H           0.43998824745245    1.88904662718407    1.03733200995547
O           0.77377284128518    0.76053615396377   -3.62432527153419
H           1.16682272781077    1.23292637124623   -2.84592447065082
H           1.43951113272767    0.79129890806798   -4.31284607778560
O           0.42680524327295   -1.47411796233895   -2.25274639957514
H           1.26401861543258   -1.47700751070762   -1.76711693507424
H          -0.32620011673463   -0.87676013666254   -1.08192665627930
H           0.48224352367674   -0.70463742527283   -2.87698580940804
N          -1.32801084094224   -1.07013346311716    2.86061459201808
H          -0.64388156028957   -1.72958405958968    2.31533298302037
H          -2.19917266617328   -0.97078424188948    2.29279673457768
H          -1.49956432489312   -1.33018538366137    3.82549970890536
H          -0.76150606433028   -0.19823361500435    2.75369294112310
