    26
        -50.44427729  Gyration_radius:  2.49817749907 Dipole_moment: 5.592
 S          -2.25150716839646    0.02607316053270   -1.03826633860818
O          -2.27184481004429   -0.07612416811634    0.39610672660464
O          -3.37616958680169    0.61244779074523   -1.66924048741578
O          -0.94132332537608    0.78735644525417   -1.44518721835145
O          -1.97489350109383   -1.36854557207649   -1.64439007062052
H          -1.19683097409350   -1.71624194905715   -1.12749447511302
H          -0.65038640195405    1.42252835923098   -0.72584656004646
O           0.17394165540718   -2.15141326734001   -0.42129659538157
H           0.37469090980775   -3.05756286626744   -0.66257894477488
O          -0.18086056197261    2.41998391273095    0.41520629785204
H          -0.68125450744188    3.23671172187181    0.37946082371073
O           0.88256718131112   -1.01440792256595    1.97604397444705
H           1.02698785179251   -1.72751445843868    2.59941770350550
H           0.52135500552048   -1.41540017939027    1.16126706196228
O           2.28691089083193    0.99832647718244    0.52286907456137
H           1.60395825080660    1.67784656346989    0.45781452097570
H           1.95807639731295    0.36242708954206    1.17276348525197
O          -0.94744334163647    1.00547406525549    2.42839639622716
H          -0.46083689195779    1.94822964296783    1.26377912603827
H          -1.64147101393925    0.59082149503497    1.88376070795403
H          -0.24981548631013    0.33000178487054    2.47870010540587
N           1.67796433843782   -0.55584612992002   -1.75322560656047
H           2.09941691699462    0.03403577407872   -1.02729098259504
H           0.81694584555112   -1.54437756259641   -0.97483793565008
H           1.00171203380434    0.01694397219424   -2.24524700017562
H           2.40011028341348   -0.84177417920842   -2.40068378918420
