    26
        -50.45371822  Gyration_radius:  2.52351765934 Dipole_moment: 7.372
 S          -1.75109967455506   -1.28678265146147   -0.78175821471446
O          -1.98054222857111   -1.63026209396016    0.60867053503654
O          -2.84841044627376   -1.41592161288792   -1.67168668491064
O          -1.12737646420318    0.07722130778018   -0.84018747737223
O          -0.58208377647415   -2.23051837548820   -1.30497400497225
H           0.08883693402216   -2.26633663943966   -0.60202448986714
H          -1.25629890110427    0.62806000324347    0.73602641272253
O           1.52552544943793   -2.04447274659878    0.42860124066929
H           1.93423727101092   -2.87357979192697    0.67960716253259
O          -1.22602946947119    1.10876520419577    1.59524834463558
H          -2.07525383465715    0.93773859357291    2.00691530446582
O           1.93219711741090    2.53343951074111   -0.59739470697215
H           0.97522344378166    2.79912883444929   -0.62127075156085
H           2.25446275434980    2.77612985488386    0.27201646909145
O          -0.68511685547751    2.85136305802391   -0.49817696211303
H          -1.04482992769625    2.12521959095197   -1.02405434806095
H          -0.88166131157685    2.59416925648130    0.41685014051393
O          -0.04027418295119   -1.28552587224209    2.30580561750686
H          -0.14126223702107   -0.32423572256343    2.37882895230000
H          -0.84433296290706   -1.55481877417605    1.79509072300165
H           1.00027483801858   -1.73506620787578    1.23434262754630
N           1.38377811407657    0.04008844486217   -1.31569971053341
H           1.74874309341507    0.99046985846071   -1.03589422625026
H           1.60306360089925   -0.16622599249239   -2.28445830277566
H           1.73548183836872   -0.70738110564077   -0.69799266466025
H           0.30274782816326    0.05933405913062   -1.18243098518394
