    26
        -50.47304684  Gyration_radius:  2.48570104366 Dipole_moment: 2.164
 S           1.17544310934723    0.74071107023395   -1.60309009535394
O           2.11147622768909   -0.03487983938797   -0.79740241195778
O          -0.13876392411378    0.12930838982352   -1.65833034584644
O           1.15292320448321    2.13819718757873   -1.22250195329356
O           1.72940348973456    0.69515879745708   -3.08816110008981
H           2.47480532275347    1.28472534562254   -3.04472502344791
H           0.39445649280401    2.42976028348144    0.16234109456519
O          -0.05792152793992    2.49921982388195    1.04239776778500
H           0.08467893530472    3.39698887945804    1.34634104753728
O           0.72624742143756   -2.27537259873120   -1.09707736509573
H           1.55772624199324   -1.78465568760022   -0.97606529327205
O          -2.76289695540557   -1.13990761694750    1.05616348459158
H          -3.31727768876061   -1.59565961488349    0.42102313564103
H          -2.59569416692959   -0.23751611864949    0.66234979082296
O           1.24946046602914    0.19728347736247    1.70311067661368
H           1.71316747429314    0.14430807758022    0.84041458143830
H           0.75087775383878    1.03347752429094    1.67295131780900
O          -2.12988902431699    1.09131160996552   -0.13685001975578
H           0.17088684138608   -1.59437826259800   -1.52349072480607
H          -1.61105606395803    1.69208404919702    0.41925835464684
H          -1.49781172693320    0.77188992097934   -0.80936860184457
N          -0.24323963290836   -1.93691880659864    1.34291420147448
H          -1.26467498910530   -1.67636549746576    1.27473664047924
H           0.31938530814092   -1.07061600559935    1.61189667633064
H          -0.10282070762375   -2.67831318861832    2.01987936404363
H           0.11110809876995   -2.21984119980924    0.38128482099224
