    26
        -50.46017872  Gyration_radius:  2.70324198185 Dipole_moment: 2.934
 S          -1.42449187526127    1.36588630255136    1.75822011296338
O          -0.49840820418019    1.03487964847716    2.82142692597116
O          -0.86415514959307    2.33882578478852    0.82418020648470
O          -1.96275713881197    0.19988412962228    1.07665779537036
O          -2.67036769631880    2.07563085756150    2.44258872335131
H          -2.25540589736438    2.73977674165416    2.98430558123001
H          -1.78601181436351   -0.44060734265874   -0.40403350407167
O          -1.55132224763886   -0.70818297895972   -1.32776966455452
H          -2.32285662285643   -0.51406075936304   -1.86167776924449
O           1.74169335014968   -1.11729567985453    0.63958472448448
H           2.53907069185130   -1.06870498165748    1.16804822164040
O           1.99279361549943    0.43077253785063   -3.00756620392756
H           2.58093578059004    0.32577789457719   -3.75484340698687
H           1.69479242506304   -0.47049427173374   -2.75861353113900
O           1.00926111324147   -1.88621381626738   -1.97022833112683
H           0.05544387599445   -1.78191419469732   -1.86336267856987
H           1.37469106700624   -1.86727240690789   -1.07362564740718
O          -0.20255190569784   -1.50856617984148    2.31651829811633
H          -0.23069405261820   -0.59913699879056    2.69192045227014
H          -1.03451738675528   -1.56575959578215    1.83405935648843
H           1.00580775365352   -1.34947171616924    1.27887149204348
N           0.57853266296330    0.89831485601258   -0.76671344729743
H          -0.18104209865333    0.33485519187742   -1.19925044046089
H           1.17478181599483    1.26346509980739   -1.51626942847459
H           0.10218781086879    1.62544766400575   -0.15776531234850
H           1.13459012727819    0.24416421381749   -0.17466252485210
