    26
        -50.44212376  Gyration_radius:  2.571203012 Dipole_moment: 8.017
 S           1.86919891755139    0.29514508802230   -1.86311253762957
O           1.11420782752885   -0.92437691659467   -1.92274256347444
O           2.47918517891462    0.76416945432562   -3.05033713850911
O           0.93564604667801    1.39509355116878   -1.23928527930965
O           2.94830820346306    0.18309192645265   -0.75379564550805
H           2.52031492462445   -0.10695481894277    0.09751297842702
H          -0.02598765666910    1.19482184956686   -1.47648156851977
O          -2.28915651429168   -1.12045717904117    0.00185673815409
H          -2.87415916311532   -1.75150905507175   -0.41806332533273
O           1.89266118398138   -0.35058555410769    1.58055083048864
H           2.60761273514518   -0.17484144766854    2.19558211893554
O          -2.28113655877418    1.28272965421118    1.27558104185716
H          -2.78098498373581    1.31121079053652    2.09218755734575
H          -2.35481501400431    0.37346265885003    0.92985241631112
O          -1.56519656366859    0.97981129610935   -1.55963531957081
H          -1.95574742662380    1.64663631972836   -0.98447886131091
H          -1.77481982799074    0.12118601447549   -1.13258886697162
O           0.40811718924684    1.79441383183129    1.45934385694939
H           1.28711060075541    0.44126239694403    1.62933280765559
H           0.65504894832681    1.98958767597381    0.54421612644805
H          -0.55806048496880    1.65566122623393    1.44813067028522
N           0.01729314686371   -2.27811339580925    0.27430196315018
H           0.42822249511809   -1.93600392728150   -0.59783698046250
H           0.11679641465607   -3.28500375641432    0.28889677316802
H           0.58539802043752   -1.89650912412874    1.02279104386480
H          -1.40505763945119   -1.60392854937546    0.15822116354029
