    26
        -50.45720567  Gyration_radius:  2.40171586989 Dipole_moment: 5.492
 S          -0.38483510120632    0.99449567160703   -1.93071999950242
O          -0.78172623624670    1.54237331284363   -0.63844961929402
O          -0.55970352425291    1.85344295343705   -3.04706933901681
O           1.00457795439425    0.45981913550950   -1.80848365388707
O          -1.26961889286383   -0.29965033042606   -2.14006511799002
H          -1.33205144572954   -0.71129182341726   -1.25416691997681
H           1.51314076662448    1.20441796322326   -0.44184047312685
O          -1.31716214887711   -1.49776449820212    0.26014356098127
H          -2.25748508651623   -1.39377179703623    0.43427743664916
O           1.77102897293014    1.53251568433289    0.45220083674349
H           1.62925840970468    2.47961716909741    0.42479179284277
O          -2.80944547925992    0.82311875143517    0.85012592739571
H          -3.52029866411817    1.46063871572908    0.78382259798230
H          -2.11181932089776    1.13556240924912    0.22573278219336
O           2.28397300660399   -0.90296969072200    1.59110958538144
H           1.51214629688936   -0.80286124657288    2.16289947338520
H           2.46652430364568   -0.00075475612669    1.28033380464788
O          -0.24442012369649    0.27848059700152    1.91037673632394
H          -1.11009198620731    0.70203214188875    1.98047121844002
H          -0.88884073075464   -0.87003778507021    0.90005623207808
H           0.28554275330007    0.86350076808780    1.33212553238282
N           1.23024616801228   -1.80545808753742   -0.67081289325010
H           1.14834144144959   -0.86443758698325   -1.23435141380276
H           1.73068396911067   -1.56373614081285    0.23563830040509
H           0.27699345693838   -2.11430102780614   -0.45210656332023
H           1.73504127107735   -2.50298049269181   -1.20603980467847
