    26
        -50.45156673  Gyration_radius:  2.69945039109 Dipole_moment: 7.318
 S          -0.52210894985696   -0.72439604052482   -2.76303913529724
O           0.91656867254394   -0.76345988385296   -2.51220971116819
O          -0.89958036467435   -0.45885496546270   -4.11437485118265
O          -1.03314447321083   -2.23501013953938   -2.46948982122797
O          -1.18677858029590    0.09836273301331   -1.75146921616709
H          -0.61457251120945   -0.85339156151117   -0.56702234092196
H          -1.40722712524825   -2.47133705279638   -3.31234025727449
O          -0.19909143947775   -1.48516870618200    0.06135504836581
H          -0.19636552282500   -2.31550382120582   -0.41942137924538
O          -0.80146625034901    1.40487098635978    2.28754194562910
H          -1.39488505960220    1.93089656595255    2.82483257748871
O          -0.35377093663054    2.19328364634065   -0.33592204914137
H          -0.84461951892725    1.57667933722854   -0.91638141387394
H          -0.62949573088060    1.97887453694227    0.57377620988413
O           1.79134138005390    0.42863358971914    2.18018802060627
H           0.88849908138639    0.78358493508587    2.25985748483480
H           2.34815186876820    0.97080911647628    2.73997710042166
O          -1.47906479691972   -1.13078484505974    2.34446500033723
H          -0.93466870390844   -1.59198777896135    2.98537648767534
H          -1.16113904732800    0.47743533945522    2.29539157860642
H          -1.07921678924243   -1.33606531911113    1.46413340685638
N           1.78751612794538    0.70223315835534   -0.56468610362305
H           1.00517233594010    1.43172641006783   -0.49051848061178
H           1.46486423143264    0.01206106231076   -1.32148652160657
H           2.66784163040263    1.12319788372189   -0.84060798528641
H           1.86724049213418    0.25331082313094    0.36207440588944
