    26
        -50.46173953  Gyration_radius:  2.46542726904 Dipole_moment: 3.765
 S          -1.63675912002508   -1.51225829407984   -0.79932766327056
O          -0.77616577224055   -2.30630072618594    0.08237617673734
O          -2.32323942571936   -2.24089081136165   -1.80721464559932
O          -2.70517812750757   -0.83142373455097    0.14475877973125
O          -0.84668952576720   -0.37541810969433   -1.34065893937876
H           0.67042360816504   -0.31042599981790   -1.78894924608160
H          -2.17121158264093   -0.47345566577269    0.87112602939615
O           1.65157299809337   -0.25278538350170   -1.95244432690731
H           1.77517453796969   -0.41738897066774   -2.88772875192770
O          -1.32890472127480    0.73381878299425    1.91568977232007
H          -1.92959359869149    1.11812930276943    2.55616354132421
O           1.52371093610316    2.01082900207684   -0.25090573103863
H           1.72263356888137    1.34920212939091   -0.92981071947137
H           0.58908921871739    2.23180653596526   -0.36793634281396
O           1.44110428743206    0.54183539727216    1.97682262108746
H           1.58734183922566    1.20916677398583    1.26525409666334
H           0.48793619934920    0.56818053796512    2.15887336330266
O          -1.28930870674679    1.97295319127191   -0.43328833291542
H          -1.31200643467603    1.33610110089522    1.13434899469620
H          -2.08066183158984    2.32456880113836   -0.84327642121124
H          -1.14623799143670    1.07091763908948   -0.84421460633715
N           1.64723788945078   -1.56455589506315    0.43302049061842
H           0.62655430580685   -1.91150541391457    0.30799551402770
H           2.24770737353963   -2.32363913984702    0.73311633682379
H           1.94229778527247   -1.18178828200485   -0.47993472789822
H           1.63317228024764   -0.76567277842742    1.14614475808889
