    26
        -50.46794025  Gyration_radius:  2.44511079945 Dipole_moment: 3.622
 S          -1.13343999494012   -1.20587258473001   -1.61004033502930
O          -1.93385850571498   -1.09841160988346   -0.40266139698254
O          -1.11136056082797   -2.49091137080045   -2.23067372417152
O          -1.82675953720344   -0.21326415633224   -2.66960742465105
O           0.19462417593906   -0.62145598469056   -1.38257191185654
H          -0.80300760387375    0.69627816082956   -0.84327943288068
H          -1.99780289848164   -0.79976370906769   -3.39893208317411
O          -1.13253554145343    1.56431274783765   -0.54577076671845
H          -2.06876041787491    1.55051538504623   -0.75297109990853
O           1.54582000119522   -1.64928593855613    0.67486377732352
H           1.13833372151809   -1.45471478942352   -0.19339839952921
O           1.59442348299741    1.69063886798936   -1.37670037218748
H           0.80024078276713    2.23262603749752   -1.30038236139261
H           1.25551740857470    0.80832173101671   -1.61560105295141
O          -0.37217795208966    1.27758569252279    2.04816579139908
H          -0.62903535111339    0.34889161622617    2.19516120823204
H          -0.76788434697855    1.51324425292701    1.18447397653626
O          -0.88173261707903   -1.41623440307955    1.93396076264543
H          -1.31089703895931   -1.31217427349079    1.04286447626027
H          -1.45599787778078   -1.99945446162702    2.43197099900244
H           0.78858770192577   -1.78340487172192    1.27072576042650
N           2.05337214512096    0.88863013193931    1.12500182024759
H           2.87279228230808    1.18843589346869    1.63934367724615
H           1.14309264922510    1.15134865160288    1.61757975549420
H           2.02006270377183    1.30499934257135    0.15590881413762
H           2.01838317901669   -0.17088035811568    1.00256954247661
