    26
        -50.46794040  Gyration_radius:  2.44518526415 Dipole_moment: 3.618
 S          -0.25179189481017   -0.04615477655370    2.29457285929108
O          -1.52874794520034   -0.27290227785892    1.64037034976509
O          -0.27305129137109    0.84306788527201    3.41071480864844
O           0.18748453464062   -1.47980812145350    2.87816936219421
O           0.77472145822227    0.26605760457961    1.29167704842343
H           0.13821054344184   -1.20220052326015    0.61310946576438
H           0.30518477656206   -1.28297025614860    3.80147493354317
O          -0.00600600786258   -2.00510815038154    0.07909586670117
H          -0.57161399437972   -2.55723949844654    0.62210546902108
O           0.20684854606992    2.32975283170817   -0.30016040006687
H           0.48976707182484    1.73914016047629    0.42714055693643
O          -1.09394369066405   -0.72701711950337   -2.05933549569539
H          -1.66680324850403   -0.08742225877653   -1.59815404834793
H          -0.79245901320648   -1.34271227304215   -1.36070579269666
O           2.53495061277972   -0.81966624359663   -0.44876632282617
H           2.14913324351366   -0.35628017416425    0.31725102460834
H           2.07772286110322   -1.66879363358615   -0.46227293160466
O          -2.25726772643233    1.12688215911755   -0.40327494122572
H          -3.16221526838956    1.40443058649296   -0.25501608316112
H          -0.74919052960480    2.16909739679160   -0.38219262174957
H          -2.00560192607009    0.59111132326028    0.39600147258003
N           1.11729016772158    0.68429641823673   -2.13425547900110
H           1.80632307284443    0.09594160377709   -1.59331547123280
H           0.23709889834886    0.09672425436564   -2.27663527411173
H           0.82775748767135    1.48397575903311   -1.48957311847771
H           1.50619928216917    1.01779734210286   -3.00802523655768
