    26
        -50.46829419  Gyration_radius:  2.53049963872 Dipole_moment: 2.910
 S          -1.77114237744507   -0.79305694104323   -0.90701838924083
O          -1.45352375229435   -1.30416541954369    0.41915222169109
O          -1.68333817642511    0.65178444772190   -0.97625564606869
O          -1.01107914635266   -1.47226438014897   -1.93985921299868
O          -3.29097465811468   -1.15091257983425   -1.16880911866699
H          -3.23683442100771   -2.09860372296460   -1.21727771527113
H           0.55809737875381   -1.26473015101542   -1.90542747503503
O           1.53799469381130   -1.08779746111219   -1.91391325384481
H           1.85665645547262   -1.45177534337035   -2.74159165392728
O           0.69797438587382    2.01478578769122    1.51824797514744
H          -0.26387990351749    2.20230410241373    1.55486323744237
O          -1.97412639632482    2.04274754436220    1.25906284824476
H          -2.47899692767247    2.81534866383685    1.00062764282408
H          -1.93906959081268    1.46922709676606    0.46279132845623
O           2.75664256829856   -1.35268951277973    0.46194348687898
H           2.33385087761759   -1.37464376580960   -0.42303857638570
H           3.40143494879743   -0.64285731509596    0.42729557884938
O           0.87361783331124    1.50748540084180   -1.10532332377625
H          -0.08030959091140    1.32155868047806   -1.17833570640692
H           0.90628937676157    1.99348810319114    0.55809267731166
H           1.30446203041886    0.71548424171272   -1.45548630163723
N           0.59585211733442   -0.55968146912752    1.87431531962820
H           0.49614845170207   -0.87528754194359    2.83234821780406
H           1.45098296431785   -0.96507308995407    1.42990123369731
H          -0.24868454182023   -0.85944680415860    1.31117112849600
H           0.66195540021068    0.51877141886790    1.82252346678493
