    26
        -50.47307530  Gyration_radius:  2.40528468184 Dipole_moment: 3.096
 S          -1.36863430359818    0.63709845907052    0.18954926573358
O          -0.13784641693232    1.32184041298510    0.60725214748118
O          -1.61478030944939    0.79465580091142   -1.22723323716221
O          -1.32554392193049   -0.76937712972984    0.57721583744120
O          -2.55591421866060    1.31076783191043    0.94135322835737
H          -2.26647963069952    1.31446210047059    1.87384746831264
H          -1.03768437449657   -1.56630129526822   -0.85135844198643
O          -0.80852152341462   -1.79879011150836   -1.78043812892899
H          -1.37448143588031   -1.21347764688936   -2.29461014421151
O           2.03504500016173   -0.24250911953330    0.64785154611967
H           1.31506924016277    0.41825396745593    0.71700904318780
O          -1.01653112071454    1.40140484419018    3.08538767379112
H          -0.82215333716667    2.22079789927806    3.54554985320675
H          -0.44052846949023    1.37591969530767    2.29610727442863
O           0.61664528690968    1.83531327927675   -2.09885673411105
H          -0.30570341222809    1.54341024236012   -1.90861860730208
H           0.89154612983291    2.25982133443421   -1.28024657628055
O           0.56777254386068   -2.13047330217506    1.86191320822758
H           1.71830338983090   -0.99542830468183    1.18609263453340
H          -0.20349175755032   -1.63322299421977    1.52083547672754
H           0.38473552336443   -3.05452776908790    1.68638586667574
N           1.57335489261439   -0.62506000595277   -1.88422819638953
H           2.29212054059936   -0.99170822991713   -2.49737951513375
H           1.30087281598127    0.36743020970754   -2.13573370839376
H           0.68798359848242   -1.20505680732735   -1.91805904839522
H           1.89484528040949   -0.57524337105853   -0.85958821592743
