    26
        -50.45577246  Gyration_radius:  2.52407178246 Dipole_moment: 7.634
 S           1.70113948871201    0.75185697562171   -1.65609395891338
O           1.65490026232247   -0.00959073882745   -0.36455423935803
O           2.93080863314562    1.44191991485265   -1.83040872616635
O           1.53897577215308   -0.31910762317069   -2.77205012753609
O           0.51218676195397    1.61424647175522   -1.68808832475066
H          -0.79814472773029    1.17641917857521   -1.13352040260515
H           0.63635624047002   -0.70820045592284   -2.65300870032357
O          -0.36788493309024    0.18163919828025    3.34821434745587
H          -0.99686986301952    0.38754236301974    4.04042222453244
O          -1.64976413590283    0.89971304060417   -0.64648802941418
H          -2.36141253563789    1.37775269344169   -1.07446735800954
O           0.52366422238446   -2.31388586052170    0.02153248800468
H           1.02723297232476   -1.46970796921357   -0.11598447216631
H           1.17596024314691   -2.98995326582308    0.20651310932424
O          -0.80082248963485   -1.35056462645073   -2.15976735024088
H          -1.28911057476751   -0.66022446208904   -1.68693602228820
H          -0.46763484250853   -1.95656552882204   -1.47689277116190
O          -1.53083814987561   -1.11830602659120    1.37167929393992
H          -0.84987569261744   -1.69549076733228    0.98279858145234
H          -0.83015908791558   -0.42877085102183    2.71803303124521
H          -1.73118402086205   -0.46246466423333    0.68962980139744
N           0.39280981963799    1.55614990175043    1.19992495790387
H          -0.49894938896974    1.62071563420195    0.69008867925247
H           1.00757899639207    0.87907723327215    0.59479953223880
H           0.84972606271508    2.46049723094952    1.24763272404637
H           0.22131096721754    1.13530299370883    2.14699172214519
