    26
        -50.45611266  Gyration_radius:  2.42338004506 Dipole_moment: 5.638
 S          -0.14932426914299    0.42453496667199   -1.96065587798305
O          -1.05612042241662    0.89277390029488   -0.91508152474242
O           0.14538179922256    1.41291135407418   -2.93855182002190
O           1.13282784468733   -0.08890389004369   -1.27704555380690
O          -0.72229285655675   -0.83616773077597   -2.58177373593842
H          -0.87922471208604   -1.51866479497064   -1.80519595839232
H           1.45366032908792    0.55866075982976   -0.52363470002674
O          -1.05893337626284   -2.34704618546502   -0.60453826959516
H          -1.61831268515624   -1.85061134873151    0.01361769965562
O           1.73815086234058    1.46561220690929    0.58551184727616
H           1.27055479768957    2.27531598932377    0.27751548050848
O          -2.12431489713142   -0.38342659749865    1.05702954113316
H          -3.01693210394750   -0.06458087420350    1.19961842052019
H          -1.76272009699802    0.13580096299393    0.29512698459817
O           0.20563672885335    3.23977730942652   -0.68520036823037
H          -0.47057123328867    2.54367505963486   -0.74202731927457
H           0.51094875975000    3.35011743705746   -1.59047494938299
O           0.17276311640339    0.17424384854904    2.42730545609688
H          -0.05204886067154    0.60394760987207    3.25413955039543
H          -0.66982460514735   -0.06952552593611    1.99606739906275
H           1.21191053140348    1.08268785425526    1.31557122255707
N           1.24284379453097   -2.23056075222747    0.73171916876430
H          -0.17254401161799   -2.41034389209682   -0.14423674739625
H           1.80719179006646   -1.75758679336408    0.03550661930060
H           1.09804547631976   -1.57939616780244    1.49569791196597
H           1.76324832016376   -3.02324469575160    1.08398951284977
