    26
        -50.45577247  Gyration_radius:  2.52406691696 Dipole_moment: 7.640
 S           1.42737620064839    1.91985134924663    0.69265989930351
O           1.46215317899650    0.42127701487735    0.74719410266036
O           2.13657158030315    2.51453875071634    1.77064560743724
O           2.10719807813866    2.29922884889733   -0.65371099148512
O           0.01445174978254    2.31297646916101    0.60651768410188
H          -0.98152387093612    1.52171725023066   -0.16684361747108
H           1.52930568426952    1.93143615220310   -1.36862256829846
O          -1.21006660182694   -2.77871139853932    1.48071445377449
H          -2.00438002908735   -3.30168671330191    1.59391108670413
O          -1.66352267298192    0.90359362219833   -0.60493180249770
H          -2.39028305806121    1.46702905916062   -0.87423976278337
O           1.60223084741179   -1.18826094885457   -1.28472669194960
H           1.62389083984439   -0.59547819899473   -0.48893252127502
H           2.43847142845561   -1.65455281025027   -1.29652632277202
O           0.54740684625108    1.07602880436445   -2.38114972087156
H          -0.32121752882038    0.99926294137863   -1.95905906440443
H           0.96478434713682    0.20288480362665   -2.29268402500030
O          -1.03111170525347   -1.85626365917486   -0.98218643056646
H          -1.12906917582255   -2.59353183415977    0.50989595527905
H          -1.36406193111041   -0.94840795159026   -0.96196726784399
H          -0.08070678364132   -1.77843217668726   -1.17925909531814
N          -0.75588068329779   -0.18204302943157    1.84661617161058
H          -0.84831338455919    0.28011685776659    2.74480252204380
H          -0.91425242832076   -1.21903161502534    1.90316839113238
H          -1.40224651798428    0.22343804929299    1.15587569747427
H           0.24279560047532    0.02302033287351    1.44283829101912
