    26
        -50.45524934  Gyration_radius:  2.4286286135 Dipole_moment: 5.980
 S          -0.78153302240369    1.26343790202623   -1.36296603012043
O          -1.03372515033917    1.44519998395618    0.05319695827187
O          -0.60627110562117    2.46695651373438   -2.09763148695116
O           0.42398191445651    0.32139368227053   -1.53036826254340
O          -1.91745638193844    0.41661407648082   -1.96455957336647
H          -1.95398516780988   -0.42236400834707   -1.41607125461175
H           1.20608985734749    0.57057183769772   -0.85762978174245
O          -1.87419728799859   -1.77724276342770   -0.58221823326974
H          -2.31442867977526   -2.46140274183361   -1.09011391344874
O           2.15296342367759    0.91272256465825    0.14833692751028
H           1.88833377941038    1.84417088388504    0.32915001003560
O          -1.42097598076786   -0.44905307999371    1.88089465329820
H          -1.38388840447348    0.35922533220938    1.33529787459827
H          -1.79955934701062   -1.11327771688013    1.29274445525180
O           0.91111998786114    3.26492137753067    0.24951395215562
H           0.82091259240164    3.62510870622165   -0.63787755203515
H           0.07751053642772    2.78983230084631    0.40417960509545
O           1.19134521291132   -0.72117465069825    2.06294517300936
H           1.45831768723920   -0.55352303490866    2.96789018268228
H           0.20078036519206   -0.63175129662588    2.04791616976848
H           1.86555797661162    0.36582086775852    0.91494256491052
N           0.67310253524178   -2.37789791522653   -0.41609062595025
H           1.04851261376888   -1.76047827351470   -1.12745947173230
H           1.05325193708127   -3.30490683689761   -0.55879928869310
H           1.00698624471623   -2.03443947558340    0.47974617112731
H          -0.89274615618181   -2.03846423532855   -0.52496924325635
