    26
        -50.46696592  Gyration_radius:  2.45442016573 Dipole_moment: 4.671
 S          -1.39820783149748   -0.87447549317782   -1.36320426334042
O          -0.16910008344179   -1.63739975926239   -1.16004064412645
O          -2.58520194580424   -1.55806926240053   -0.96351320362475
O          -1.25110143049769    0.45734718219785   -0.72729293583179
O          -1.48598795828344   -0.59192449060212   -2.91263563912065
H          -0.64844714570612   -0.16652488636162   -3.12598235479253
H          -2.03401151834084    0.01416593750921    0.78061545976717
O          -2.24543659390649   -0.56856726940479    1.53093345703840
H          -2.64933165218800   -1.32655589681136    1.09085096513940
O           2.39707074536460    1.27282022208370   -0.32951818562830
H           1.97871799067912    1.27311318496985   -1.20939381104040
O           0.08863524703466   -0.49523460631885    2.73329252445285
H          -0.81530458302911   -0.58153824753194    2.33130305214296
H          -0.00427475644498   -0.73286134002888    3.65644831938243
O           0.56636557415735    1.24561881053446   -2.38870968271194
H          -0.11472220142081    1.02813354904128   -1.70617491837750
H           0.34317670038850    2.11737282257519   -2.72214598232335
O           0.24405246526812    1.88258772339890    1.12018119509142
H           1.75144822980635    1.73702444965571    0.24962804079060
H          -0.38859223495657    1.50960588441510    0.48572421181371
H           0.21056398032881    1.29825030545582    1.88795097111816
N           1.66203717643308   -1.07485353866997    0.56545652721933
H           2.09397761441001   -0.15514071382957    0.21909586178160
H           1.19209686689939   -0.91946225401575    1.47522422213205
H           0.90666272035675   -1.34165108152993   -0.14900243936851
H           2.35491461438317   -1.81178123187809    0.63090925242230
