    26
        -50.45524931  Gyration_radius:  2.4285577824 Dipole_moment: 5.981
 S           0.62599797382741    0.88781205812617    1.69829797716328
O           1.57182163875321    0.48162507954583    0.67726725732533
O           0.93738765681098    2.11260166843149    2.34763669840910
O          -0.78222976612232    0.92185494498220    1.07811976734431
O           0.48145954728588   -0.25209658758131    2.72262297236906
H           0.23046896622348   -1.06632725678558    2.19336194201577
H          -0.77255759375692    1.38044774358318    0.12088332910534
O          -0.28318947713407   -2.28564297022632    1.30633261643631
H          -0.69710750645852   -2.92223296350354    1.89223021620025
O          -0.64371015744069    1.91221752953377   -1.19269876546050
H           0.19746144517736    2.41569835584601   -1.09679330104891
O           1.65596419017405    2.94836142516799   -0.34240543019511
H           1.92821798709343    2.05602147667515   -0.07006145480247
H           1.51660203980465    3.41973014007608    0.48447246139908
O           1.46900640321986   -1.69942356383282   -0.84297814389557
H           0.99136172752702   -2.26080045823681   -0.22071183156629
H           1.70270844518558   -0.90938394522912   -0.31994020132140
O          -0.19299627804638   -0.43156111070114   -2.44303351987396
H           0.45485324893310   -0.93724862232251   -1.88257978878506
H          -0.45363084185686    1.11256815159925   -1.73486625010996
H           0.18407455267557   -0.40360044361576   -3.32361150313784
N          -2.12307629627368   -1.30112033082207   -0.28145526751970
H          -2.29443715366595   -0.41206759945426    0.17505106576602
H          -3.01292667969713   -1.74428545693292   -0.47114507588321
H          -1.67689957946516   -1.09567830408198   -1.17067045053672
H          -1.01462448280546   -1.92746895025207    0.69667467059459
