    26
        -50.46635425  Gyration_radius:  2.5361996947 Dipole_moment: 2.337
 S          -1.84320787341666    1.21470344340687   -0.33606891344200
O          -2.39720135039441    0.87042777569776    0.95588060941546
O          -0.45767232851824    1.66708178949309   -0.23064927705380
O          -2.01666497584743    0.16601994147179   -1.32088949721131
O          -2.64041481801701    2.47394135100393   -0.87375637313527
H          -3.50776668892887    2.11151798125642   -1.02006870709338
H          -1.23005461889745   -1.16032447505793   -0.92621118426817
O           2.96108824571799   -0.58484051658940    0.90040974585626
H           3.27275383290214   -1.40439954264180    1.28673006815374
O          -0.76076008365641   -1.97686990695537   -0.60810625665680
H          -1.13505436791768   -2.70305137212506   -1.11021625119602
O           1.04394496446168    1.11241645869351   -2.36685480229226
H           1.64696035978794    1.85615680697164   -2.41205696172244
H           0.40353508031017    1.32270057731634   -1.65849291652109
O          -1.16741928525474   -1.22623720058284    1.98529718052437
H          -1.02179982149135   -1.72953008119770    1.16403706469863
H          -1.80888843423376   -0.52675463968197    1.73276795087524
O           1.81246413606286   -1.26433716962594   -1.32441418855321
H           0.93876015893492   -1.61038791704869   -1.07115710182120
H           1.61928183372486   -0.45153446538103   -1.83307351639644
H           2.60378069329689   -0.83114255209652   -0.00411828403252
N           0.75313113158427    0.54491530877713    1.83367779861433
H           1.67705207652808    0.12985083053598    1.52419587838689
H           0.87277403858289    1.15072266234927    2.63783462302913
H           0.33056270159549    1.08503576656627    1.03436236931825
H           0.05081539305694   -0.23608087458851    2.04094093252373
