    26
        -50.44548422  Gyration_radius:  2.7640208609 Dipole_moment: 6.192
 S          -1.80345990338192    1.06160712061207   -2.03509526337862
O          -1.41702628752937   -0.25317603282869   -2.55804792152135
O          -2.87382982776674    1.69108483438480   -2.73303392904475
O          -2.37836533250765    0.74356832618585   -0.54671285257300
O          -0.62378137843462    1.87535045965556   -1.77620196204060
H           0.46402137646619    1.60039288513685   -0.76229400735517
H          -3.29052757512284    0.56724831718879   -0.75203984657263
O           1.06816533294527   -2.85410886827556    0.02467474699726
H           1.67972298368560   -3.58231054759335    0.13551889915959
O           1.23456865831745    1.34605453492283   -0.15739949231857
H           1.86983882937179    2.05954381864724   -0.23966882305373
O          -0.36691495154290   -0.47282581555164    3.35188341665023
H          -0.26498690455603   -0.13357937699642    4.24176747363065
H          -0.70163624342538    0.27465278939750    2.80713381290874
O          -0.92405205488039    1.56665897195727    1.70358407305181
H          -1.58169405548643    1.32923187166750    1.03559603623662
H          -0.09442928294390    1.64748912122871    1.21329995107750
O           1.68277470439595   -0.89110403257969    1.66384357416150
H           0.98517167778030   -0.85287975693793    2.35301000976550
H           1.27674690306250   -2.19798588247492    0.74054084475685
H           1.57886641366471   -0.08037284957816    1.15037545941809
N           0.91729298670118   -0.89746806262565   -1.77787606779406
H          -0.10152933054640   -0.66229313498335   -2.11409007308669
H           1.51683659661572   -1.01368927104246   -2.58779626402386
H           1.23358202817093   -0.10471241991728   -1.19417347066554
H           0.91464462694502   -1.76637699959875   -1.18679831438870
