    26
        -50.46734310  Gyration_radius:  2.52242283547 Dipole_moment: 2.350
 S          -1.65322012563492   -1.62534707774519   -0.68908420622358
O          -0.94905397441842   -2.48111355566959    0.24277363723088
O          -2.59898062106943   -0.73353520258978   -0.05793675511077
O          -0.72183467630331   -0.92385233229617   -1.58038733161126
O          -2.48523533855778   -2.57223426548807   -1.65194239348944
H          -3.09171883522719   -2.97697441895494   -1.04123198399638
H          -0.64527605048422    0.72824836389717   -1.62596720067921
O           0.49538105335178   -1.00068152726615    1.86556368425031
H          -0.06418342322579   -1.71847866525851    1.50168868006704
O          -0.52951162216409    1.70142192703956   -1.51340038829928
H          -1.18379428935691    2.11643317362801   -2.07669403989341
O           1.44393782774699    1.94873426000807    1.97254437075267
H           0.48068948156839    1.89589584047174    1.89486302947837
H           1.70660370755870    1.18029571743590    2.48535816854240
O           2.10586378351378    1.74673800523591   -0.65011506304290
H           1.26636896374033    1.97915117050017   -1.07762291615772
H           1.99580581398716    1.98497488684357    0.29449824625467
O          -1.08238839476712    1.07654935559168    1.11067671845114
H          -0.86246884528217    1.51934190147933    0.27285697377378
H          -1.79129507720390    0.45234667707202    0.84840289852677
H          -0.07262744754913   -0.20731056696081    1.78072033809274
N           1.67717794786934   -0.83408742003710   -0.47283284589544
H           2.39531576847630   -1.49903249407865   -0.73498261537237
H           1.98621959374520    0.18011276111334   -0.61628224088286
H           0.79694231646111   -0.98850317474047   -1.02655588999512
H           1.38128245232088   -0.94909335914653    0.54508909563856
