    26
        -50.46734283  Gyration_radius:  2.52247782894 Dipole_moment: 2.345
 S          -1.18776473968373   -1.17075519235063    1.75200380269854
O          -0.23360998502562   -0.50053252330406    2.61058372814420
O          -2.30452827977822   -0.33944276303555    1.36487527904372
O          -0.52493911836896   -1.79887235366314    0.60302488920907
O          -1.78325797255656   -2.38614070436600    2.57898545360036
H          -2.22343191407440   -1.93260693713736    3.28971757401462
H          -0.89839350065300   -1.37038625565819   -0.95064159305432
O          -1.04337960282328   -0.98239950764563   -1.84599769670622
H          -1.81481364561213   -1.42101869243428   -2.20678673553572
O           0.83889098773871    1.51753830902590    1.31056584312542
H           0.47545694876434    0.94852004248661    2.02100220072191
O           0.96416290926460    2.48554341077370   -1.63331788219187
H           0.04808404744977    2.36800553192045   -1.34392026727308
H           1.44951926453824    2.76761800174808   -0.85400091971174
O           1.52314052646156   -0.06618561229033   -2.36322084929003
H           1.40081484189773    0.90360743243497   -2.28741797835664
H           0.63163105568435   -0.43434007335836   -2.46891132865214
O          -1.27458433221779    1.33940241835495   -0.38517708369269
H           0.07508689849721    1.64542628051532    0.71094114706554
H          -1.22374513637190    0.66794080566406   -1.08734685792192
H          -1.80178083087797    0.89038912121922    0.30862908339361
N           1.81385272334878   -0.64112973566693    0.17852702923068
H           1.61084052777366    0.29303240957831    0.65093932210947
H           0.98123064919320   -1.24182012699675    0.40473627419486
H           1.83109800585695   -0.48162840431836   -0.87929762002557
H           2.67041967158904   -1.05976487158470    0.52150518589307
