    26
        -50.46635650  Gyration_radius:  2.53605707623 Dipole_moment: 2.265
 S          -1.24862014020931    1.83845344163949   -0.22011494200401
O          -0.63557919936144    2.19417004860189   -1.48161642338447
O          -1.67344548557098    0.44029690842619   -0.19932240450615
O          -0.43280923489058    2.19405866913046    0.92367176223180
O          -2.58957568166996    2.67192445664614   -0.08730511128405
H          -2.26094914575721    3.55296590598839    0.05675440760446
H           0.94267701196374    1.39249253086711    0.94109678124827
O           0.74737439429574   -3.04637536004625   -0.28484784948942
H           1.62832863530927   -3.39161990381160   -0.43589938302781
O           1.80505647625499    0.90219026805614    0.87788337787687
H           2.41153146925520    1.36906424984638    1.45560950204790
O          -1.59434166113720   -0.69771145003932    2.21328857633798
H          -1.64587220454924   -0.18108696607332    1.38459063744435
H          -2.33106099673585   -1.31061955599248    2.19287201990775
O           1.62536958846227    0.88174386147281   -1.84661009856522
H           1.94218122521051    0.87888267220601   -0.92541817436725
H           0.89148468887306    1.53436417323956   -1.85017519514056
O           0.94549099182554   -1.54885608980957    1.82471599994679
H           0.79808525707726   -2.54665698101531    0.58353068787190
H           1.34105831321296   -0.71527503210008    1.51508192773029
H           0.04450945313064   -1.30289709124087    2.11543662084252
N          -0.14790390836108   -1.04129838285071   -1.76896807197316
H           0.66285340107640   -0.35776621634652   -1.91614125829786
H          -0.84197143918262   -0.51563166511170   -1.17623455108495
H          -0.57151416694778   -1.30039410884509   -2.65294849614149
H           0.18764235841892   -1.89441838285632   -1.23893033181573
