    26
        -50.45048597  Gyration_radius:  2.70151296855 Dipole_moment: 6.751
 S          -2.73613401052979   -1.12981228024169   -0.49693052357421
O          -1.83775072387106   -2.09929104569492    0.13655195866347
O          -4.12911243765459   -1.40827729007425   -0.37340721015093
O          -2.50824771570168    0.22621547446383    0.39011629189207
O          -2.26305431432700   -0.77675031587098   -1.82504190661430
H          -0.91249836062534   -0.07300718674153   -2.07894495606051
H          -3.41743067427127    0.43287509854140    0.58021447947403
O           0.02794545406023    0.24921923043878   -2.22144876632999
H           0.17183996624952    0.21631325425694   -3.16816136089791
O           1.32583627730865   -0.34481755607931    2.07723670413742
H           1.09923158800626   -0.78465647613602    2.89718466793771
O           0.98872077536773    2.24896369528245   -0.57039726540051
H           0.55642840076844    1.71265542441664   -1.25284220942988
H           1.83320166723863    1.80066026354748   -0.39266148823374
O           3.14258039559864    0.69722345522405    0.27005636562244
H           3.85925420583265    1.22646336788047    0.62262730500071
H           2.66409794657745    0.33344589592420    1.03178382695241
O          -0.35969262965354    1.52845923583744    1.60703187643911
H           0.08239514595973    1.97028478637686    0.84209743793265
H          -1.15699551879941    1.11771520897129    1.24104948740590
H           0.66628243192418    0.41892785974019    1.97625708121432
N           0.60740710341253   -1.51782953822390   -0.26311575525853
H           1.15922826018875   -2.32615497954243   -0.52890060065589
H           0.60892698795313   -0.80862585363727   -1.02616299545576
H          -0.43830394849231   -1.80514424204465   -0.10131273104257
H           0.96584372747782   -1.10505550661568    0.62712026643363
