    26
        -50.45048590  Gyration_radius:  2.70138177289 Dipole_moment: 6.753
 S          -0.10222638052159   -2.38245344684658   -1.82284039309691
O           0.78811682616813   -1.33211814044370   -2.32523388456214
O           0.11391801902532   -3.68415500764453   -2.36318785194392
O           0.32636302411657   -2.51487581272790   -0.24917708015963
O          -1.47929260648568   -1.91910469358420   -1.78474680544851
H          -1.94884761303341   -0.74534010884979   -0.89847147368400
H           0.45431986860682   -3.45696748086510   -0.20971933677543
O          -2.19194801510128    0.10718162654674   -0.42653860281844
H          -3.08471192189559    0.31260024158471   -0.70728670908300
O           2.07106353151701    1.23918090703748    0.60628400663517
H           2.98807549496090    1.06529355338883    0.39186400501283
O          -1.23868973751486    0.50003697106267    2.13975285736338
H          -0.94058240556630    1.41007865665640    1.97041837619764
H          -1.72113152539599    0.23922542339496    1.34010407436238
O           0.01430702642793    2.88786047837623    1.44492887898858
H           0.85561853269294    2.45608151219981    1.22746290822643
H           0.18114807758984    3.44860842865958    2.20370301471686
O           1.06730012244028   -0.78672069062611    1.81427418188838
H           1.74793175521015    0.43467914250680    1.13254538757841
H           0.19999480853429   -0.40733126556830    2.09632039974460
H           0.85149704921385   -1.44919878373645    1.14128593451894
N           0.20648371808306    0.94300949928574   -1.34447029073671
H           0.92498554614441    1.14582198668653   -0.61373256297640
H          -0.73641245036949    0.83383207707303   -0.91524600311310
H           0.19443168724241    1.67560389567261   -2.04566873445649
H           0.45828754796622   -0.02082893929907   -1.80262429637592
