    26
        -50.45048594  Gyration_radius:  2.70144071558 Dipole_moment: 6.752
 S          -2.03481408043496   -0.48563489253548    2.15244069714893
O          -2.40547878422369   -1.11250851795490    0.88044247219768
O          -2.68377650775705   -1.00860599495348    3.30939828670567
O          -0.46513541895548   -0.91011765522937    2.33506750517951
O          -2.00560728709455    0.96203783512173    2.02687861949159
H          -1.03392372191217    1.70634514119796    1.08582867454088
H          -0.50735205963916   -1.25464255601761    3.22106633671984
O          -0.49548788097436    2.14925277308847    0.36301733676604
H          -0.78838189342622    3.06136746759736    0.34470844877881
O           0.79221218271091   -1.71307628497442   -1.62223773624189
H           0.59733915236947   -2.64833483030119   -1.68873107632445
O           2.12928793017582    1.35156243667520    0.01283679463534
H           1.29169766408166    1.74759799082292    0.29892289174515
H           2.05555676991797    1.27336888805961   -0.95367964361555
O           1.70361680109070    0.68501762866137   -2.65711107197143
H           2.51657020483282    0.66481162054152   -3.16379356787698
H           1.47780310074766   -0.23701757813996   -2.45616368697580
O           1.77196378528182   -1.19664049180436    0.68958980402768
H           1.03411604417434   -1.15207611945338    1.31563474668267
H           1.23019265723791   -1.58064454123733   -0.71711267707381
H           2.05564379274322   -0.26056307826592    0.55171249976211
N          -1.24491469201074    0.00115625799280   -1.09170838025418
H          -1.87698060964324    0.17435366943228   -1.86566846747864
H          -0.47288933459146   -0.63887997993005   -1.38428594672767
H          -0.86251513788995    0.89838682421284   -0.72552510107882
H          -1.77874266683743   -0.47651603262349   -0.26152775875750
