    26
        -50.46684116  Gyration_radius:  2.39841800773 Dipole_moment: 6.386
 S           0.07598572458307    1.43650072126008   -0.39601905954999
O          -1.14066015111929    1.16400312186924    0.39148414019620
O           0.73492605576320    2.65224401614074    0.00385291528185
O           0.98882858140075    0.28505214906735   -0.27665882950222
O          -0.33980729443965    1.53100466031631   -1.87895520520634
H          -1.20639391147848    0.99873898232333   -1.95485895478166
H           0.63994625564417   -1.10375018857497    0.43067574092976
O          -2.44654404853251    0.13335040819332   -1.71420486044370
H          -2.49820464047285    0.43622756675124   -0.79699474052217
O           0.40093478757123   -1.90761607037215    0.96490806667416
H           1.11262368138126   -2.53571835689527    0.82890432237750
O           0.93623375109784   -1.06783756149917   -2.57944461256125
H           1.08241605420353   -0.52992675622761   -1.77655405720927
H           0.68818011041598   -0.44318780882138   -3.26416746582095
O           2.00727102786247    1.67942938326728    2.06146055972540
H           1.57705879990251    2.20441153184840    1.34013093982337
H           2.68530912562504    1.17022000888524    1.61021942309250
O          -1.22500377612377   -2.20218848080730   -1.38971565592770
H          -0.44866536415425   -1.98741294302355   -1.94517818759718
H          -0.88819872899600   -2.25642167481245   -0.48524703596511
H          -2.12880245303998   -0.80351226552010   -1.66753290672226
N          -0.12964434265518    0.21536217085369    2.54354206000667
H           0.04772561771832   -0.77004873632808    2.27718753519724
H           0.78233951638853    0.76384994757322    2.52396845499892
H          -0.68982504128779    0.63722215184261    1.72096052299277
H          -0.61802933724432    0.30000401269311    3.42823686051112
