    26
        -50.46815420  Gyration_radius:  2.47615015756 Dipole_moment: 5.897
 S           0.26952518592332   -0.56789162486098   -0.94351260158615
O           0.43700525973747   -1.32494659812741   -2.27792766268372
O          -0.48518368760328   -1.40625520097903   -0.02124838027090
O           1.62544847070690   -0.33509161898713   -0.42825249569342
O          -0.40199023258208    0.69861106660751   -1.20352564889381
O          -2.85061871478735   -1.94750060309397   -1.08025654400340
H          -2.96380869626554   -2.89902295797630   -1.05670604833016
H          -2.02153211764626   -1.75815946043208   -0.59050351944533
O           2.12103370369758   -0.52964327289435    2.18980083182839
H           2.35710141757998   -1.39582484233721    2.52457600852158
H           1.96751027942672   -0.64153962074479    1.22753539169849
O          -0.61559325197618    0.01180763809238    2.25166049011398
H          -0.73014629954109   -0.57553709429230    1.48005365133414
H           0.29930973499690   -0.13844108318885    2.53520015362538
O          -0.60205845265160    2.26809990523316    0.90242516564913
H          -0.72755607733523    1.82284964979340    0.03482725811957
H          -0.79876761300117    1.55115949006649    1.55698834549132
O          -1.84209066858060   -0.53290654321788   -3.11658695988929
H          -0.41739049775591   -1.11630879842495   -2.76262815824217
H          -2.42508039978644   -1.06054087971222   -2.53042757416552
H          -1.63942301684498    0.26937851712999   -2.61253258616403
N           1.92302215078675    1.95161237965730    0.78993536173985
H           2.28634581674926    1.61458471535946    1.68156663149711
H           1.88666240202864    1.10742375104770    0.14382086559712
H           0.85024161697779    2.23976680098312    0.89736299885316
H           2.49803368773782    2.69431628528324    0.40835499530848
