    26
        -50.45960409  Gyration_radius:  2.5458283246 Dipole_moment: 5.060
 S          -0.39679983485102   -1.20067893340706    1.84926508487117
O           1.02879928165649   -1.48614176621358    1.85606000500140
O          -0.67418619777121    0.20715071030573    1.64130025525957
O          -1.11910671312840   -2.07652542740417    0.94310034629923
O          -0.94818940600137   -1.53304208897089    3.30412306123443
H          -1.01593126586241   -2.48295465051379    3.30660767051216
H          -0.27294889281200   -1.80059254780488   -0.33047081411353
O           0.32269493135447   -1.64332535862894   -1.11769795468941
H           0.73433655333730   -2.49281448896493   -1.28765799666634
O           0.35142589778181    2.20910960490283   -2.17058658091326
H           0.48724684503722    2.49369906880968   -3.07492625864602
O          -2.73346120806933    0.80156472877872    0.08222314835201
H          -2.02737431368127    0.49808116041515    0.69169317602808
H          -2.88805267573395    1.72257706627344    0.29972072293762
O           1.87381523452081    0.95421040720865    1.80058060021733
H           0.96313405113550    1.25781400407919    1.92992958993219
H           1.78118820701775   -0.01246053771427    1.97686383379970
O          -1.43264968516847    0.31839618118248   -2.20950465093587
H          -0.94996843528436   -0.48716827857589   -1.98210786175358
H          -2.03393621351350    0.47479053836379   -1.44796810173748
H          -0.40800266873502    1.55614108935892   -2.19844090882943
N           1.88997597989733    0.54684166421279   -0.78463771328592
H           2.82603360972635    0.41629387634740   -1.15265449721554
H           1.33574290985690   -0.33857793074675   -0.86558110550149
H           1.93385451427556    0.80244404568777    0.26066215484881
H           1.37235948501195    1.29516787302059   -1.31989516500796
