    26
        -50.44996484  Gyration_radius:  2.50773558747 Dipole_moment: 6.896
 S           0.94562060240987    2.31348128678315    0.03898410807808
O           1.16309173803999    0.91360956197370   -0.28158651175078
O           2.09235489133344    3.13994214972167    0.02330389159043
O          -0.12959072740828    2.85516953952302   -0.91128670506351
O           0.30644585450051    2.36194552719889    1.45185645162961
H          -0.39525063017701    1.65382840681936    1.53933137576309
H          -0.85670863211060    2.14737100300310   -0.99918840830446
O          -1.12150509841104   -1.41308734504561   -1.82468547052205
H          -1.48877202384660   -1.58903925382718   -2.69214012129464
O          -1.52384806290449    0.55489453703339    1.72662946803506
H          -1.83646858707034    0.55876110094047    2.63237837729382
O          -1.89883993276741    1.03334012139338   -0.94160819214848
H          -2.03075137097847    0.89133908648323    0.00783834831479
H          -1.59073282780335    0.16952273944155   -1.29435056000439
O           2.20174098423895   -1.25327981055547    0.90326648137113
H           2.97501119557751   -1.01846789179575    1.41760718639245
H           1.86219896699667   -0.41712230979756    0.52715065762131
O           1.49923585828944   -1.12195302013344   -1.99998814000919
H           1.93323588925683   -1.67770166973423   -1.34377456972336
H          -0.13994367107814   -1.34404024358304   -1.94762512947790
H           1.47048517329774   -0.24070172157708   -1.58827636442573
N          -0.67273902541972   -1.80538710148797    1.11651224381168
H          -1.00407270829860   -2.62071281340743    1.61533744139668
H          -0.93934633912039   -1.89987149216777    0.14093739149781
H          -1.16482179232337   -0.39440859215990    1.53016115319099
H           0.34397028578168   -1.79743179504325    1.15321559673565
