    26
        -50.46684111  Gyration_radius:  2.39847173375 Dipole_moment: 6.391
 S           1.41738750539996    0.13953585582654   -0.44522905456862
O           1.06425631567510    1.17826288434030    0.54011052220869
O           2.70870524004603   -0.44560861165227   -0.19576874723872
O           0.36702561149761   -0.89477157808553   -0.44434505664021
O           1.40264249750360    0.79673240452206   -1.84134944803902
H           0.78424725898121    1.60327987369982   -1.75757875646765
H          -1.01487840219073   -0.81226341250071    0.35171525090673
O          -0.18761644080720    2.69035862790642   -1.28963923547521
H           0.15097305501302    2.62475352122706   -0.38590508238644
O          -1.81265359614064   -0.74812231037847    0.94179771488463
H          -2.37251080402987   -1.49137959786779    0.71022001365746
O           1.96119804766727   -2.12639520000538    1.65230451264951
H           2.40763890548173   -1.53363347806404    0.99635903842115
H           1.50132136823683   -2.77310729867981    1.11118984397221
O          -1.08728054264401   -0.61463149710084   -2.66775500264834
H          -0.50170262490642   -0.83138186709182   -1.91573527868811
H          -0.52219607352604   -0.19373982533250   -3.31897966089296
O          -2.37382388673801    1.19441355100718   -1.10405404268168
H          -2.35341096193564    0.71239893043995   -0.26640369592189
H          -1.08537031686300    2.27273716957059   -1.26863560707432
H          -2.10919900658139    0.54475485555314   -1.78615832031250
N           0.31846014407058   -0.25910342103754    2.52267195614332
H           0.39532907876878    0.08675412116418    3.47284026677220
H           0.95209284349502   -1.09385570667702    2.33720558265383
H          -0.65604032023947   -0.49293914156948    2.25959285899636
H           0.64540511479282    0.46695113078229    1.79152942778774
