    26
        -50.46354105  Gyration_radius:  2.43486204111 Dipole_moment: 4.044
 S           1.02291702659709   -0.09149728382540    1.08404935574876
O           0.82059458115611    1.31607195939553    0.71438009639232
O           0.99910936594033   -0.30511350993624    2.50353483763974
O           0.05558429439405   -0.92814634007216    0.36262749455256
O           2.43674048054009   -0.49424522465304    0.56232310458036
H           2.39468632122600   -0.51024710543422   -0.42062539275275
H          -1.63597562639180   -0.92540944227197    0.59244961913412
O           2.32940899822022   -0.77544459251923   -2.08993339482472
H           3.16999303654247   -1.16585491578284   -2.33600693944096
O          -2.52320285796339   -0.54329182791219    0.76545037330054
H          -2.45361630902766   -0.24743565814272    1.69076788803383
O          -1.41791206422320    0.66019758214166    2.89518696138835
H          -0.50684395592474    0.31114057109987    2.77267447412356
H          -1.51962014536412    0.77773118793525    3.84133747461874
O           0.47592123104219    1.37338696199532   -1.97323548728710
H           1.04627842584543    0.71736088342976   -2.38653026274922
H           0.81450464356102    1.45322789066298   -1.06301026508194
O           0.50286450535929   -2.59799811004541   -1.59700445110181
H          -0.32971445086460   -2.63577824632178   -2.07110779208704
H           1.67767096630108   -1.52039823830726   -2.03486592671047
H           0.32020893262145   -2.08608309506820   -0.77424843483905
N          -1.57129504590234    1.66815257344560   -0.21922193400643
H          -1.24010423049945    1.57546060578285   -1.19090063835556
H          -2.13145037029811    0.80444326780521    0.09398110865643
H          -0.66605122492772    1.63237030100755    0.34637735485745
H          -2.07069653797300    2.53739978564116   -0.06844922374670
