    26
        -50.47307519  Gyration_radius:  2.40517492636 Dipole_moment: 3.092
 S          -0.27638428160254    0.55326896972931   -1.39040032496770
O           0.28512313637903    1.39574065319450   -0.32596938357735
O           0.74235604941800   -0.24774856724123   -2.03319333780191
O          -1.36199572426709   -0.27075726162720   -0.86811039692483
O          -0.86804775464609    1.50338829198241   -2.47488015089903
H          -1.42940188968150    2.11660035675331   -1.96294350891182
H          -0.69325697048881   -1.78744966898169   -0.76108425150645
O          -0.07519720789935   -2.55344972921955   -0.73025021862774
H           0.42470735642131   -2.45960693426753   -1.54789903628037
O           0.15732067632825    0.31473676012278    2.12070078933493
H           0.22409718220108    0.83499200036878    1.29331374291971
O          -1.78298975004552    3.01149892877440   -0.50928184539403
H          -1.56340093071333    3.94220889520041   -0.42858337699483
H          -1.01361943936727    2.50881734010255   -0.17655966623364
O           2.81467106825722    0.07771123730467   -0.47713705414434
H           2.16105404922817   -0.06041830255549   -1.20228056382689
H           2.57794994267895    0.94010755803229   -0.12197858823097
O          -2.37126471256171   -0.40485333549454    1.59174588065787
H          -2.85864817347073   -1.22908483878849    1.62600445098166
H          -0.78907341274965    0.07311983688986    2.17312182207984
H          -2.12399795587682   -0.27661763482047    0.65319073388524
N           1.57977645898149   -1.62638692107749    1.13081794952789
H           2.23913680905636   -1.04062119057459    0.54373365833887
H           0.93243446624693   -2.12738565894376    0.45899674404151
H           2.07560834845117   -2.27198416491723    1.73442984452214
H           0.99304266966921   -0.91582661994458    1.68449608802354
