    26
        -50.45960405  Gyration_radius:  2.54568566769 Dipole_moment: 5.063
 S           1.31062935594420   -0.43910499091643    1.76261867615948
O           2.42927291303655   -0.11029222733117    0.89409950865434
O           0.24680644414081    0.54283486667588    1.68389238099630
O           0.85770316412179   -1.80529203145003    1.56671196122753
O           1.84397362772602   -0.37028027973218    3.25991351272074
H           2.32208015014122   -1.18711571804490    3.36541913468575
H           0.64364508855267   -1.73477350255950    0.02956458176294
O          -2.05550754811006    1.13608460390135   -2.04797515682567
H          -2.56926725023697    1.07583929599173   -2.85400971122266
O           0.56675702784241   -1.67383300557451   -0.96526134285040
H           1.22519365996271   -2.28545102361305   -1.30038392929317
O          -2.23677060591232   -0.38186338211278    1.72478167829053
H          -2.73944790586345    0.40869145123060    1.92956239045829
H          -1.29317353657714   -0.11891354901916    1.77560433708574
O           1.62733118646652    2.23382180941244    0.16351855759110
H           2.18405301968502    1.46066634450141    0.42127559522454
H           0.91248296061950    2.17701625514758    0.81470114554317
O          -2.23318183182183   -1.15860183213763   -0.83906724988964
H          -2.34547839272922   -0.97080070214777    0.11912260479128
H          -2.22003914601141    0.28118140411770   -1.55194324491024
H          -1.35287702516515   -1.55006586091534   -0.91300755305188
N           0.58011627459199    0.89858073698366   -1.82901640182194
H           1.09803934519246    1.01787905265689   -2.69282763503607
H           0.98753318772640    1.53388510766351   -1.06072608947073
H          -0.44491995347469    1.10919593179802   -1.96842782460695
H           0.65504579014911   -0.08928872452618   -1.48813993621008
