    26
        -50.46635637  Gyration_radius:  2.53598485131 Dipole_moment: 2.274
 S          -1.42448175885159    1.54474847099789    0.75515827644630
O          -1.03955942067523    2.50422239433606   -0.25738634133285
O          -1.71777711591577    0.23488012370362    0.17742160441111
O          -0.48125544072585    1.47525373372632    1.85323332888838
O          -2.79828838427647    2.03065236497407    1.37715394790023
H          -2.53137809928360    2.80143931512521    1.86669563630302
H           0.94726488468306    0.95646495623440    1.37913735412157
O           0.96228547449869   -2.46665899460419   -1.70531517571145
H           1.83846383665580   -2.57817016576975   -2.07675650856292
O           1.83082020188107    0.67469682368302    1.02132205570107
H           2.47214116035214    0.92232048483099    1.68985316454455
O          -1.18318282157514   -1.82193324230913    1.79169563059654
H          -1.40191532260868   -1.00738826257427    1.29675338800343
H          -1.85761669207471   -2.46346931316497    1.56286763977838
O           1.25008582624737    1.82900520758175   -1.38415751780769
H           1.69904174457919    1.46758501038729   -0.59880754276375
H           0.46908629517707    2.30236385007162   -1.02291330123802
O           1.33630050660735   -2.03825637878451    0.82619909748580
H           1.60800360127557   -1.10618540706565    0.89417230408302
H           0.47002607717321   -2.07794172199751    1.27868585129457
H           1.09599636166245   -2.39826019201314   -0.71343066550349
N          -0.31546626625634   -0.16702674315848   -2.02683960848488
H           0.16859728749003   -1.10747735920381   -1.97572303936403
H          -0.95839290284142   -0.06260973606299   -1.19917187538208
H           0.40120003842700    0.62128645756876   -1.92082659786629
H          -0.83999906160004   -0.06954166651167   -2.88902111552816
