    26
        -50.45172115  Gyration_radius:  2.36875085277 Dipole_moment: 10.691
 S          -0.18263530014411    2.04027966778102    0.31547107481790
O          -0.46566342391231    2.47660481970820   -1.03010535314078
O          -0.74356504922072    2.78670092969126    1.39905726375421
O          -0.81498254592105    0.55943382754719    0.42310738928755
O           1.25482656762471    1.75687768890307    0.51689914964080
H           2.00636885063260    0.68617767116835   -0.25769829592833
H          -1.71776300736866    0.58583706123269    0.05826768424030
O           2.47034645623452   -0.11488743208814   -0.66625707190130
H           3.40799709458253    0.06674426852677   -0.58839412063478
O          -0.98153741822312   -1.79941993732462   -1.16893962872369
H          -0.93595901727408   -2.47737646456681   -1.84516910897714
O          -3.18823918408977   -0.23679759995827   -0.51226167851473
H          -2.58780695892405   -0.92571589078751   -0.84341550861127
H          -3.67117712049499   -0.61164323987902    0.22609445687812
O           0.65670289113808    0.41701858701892    2.64216982805181
H          -0.17735427968470    0.82619904102332    2.88889272823847
H           1.00330972898896    1.03469319709861    1.95302400689529
O           0.14852913659635    0.24967522892472   -2.27858712175065
H          -0.14116751064449    1.12033699792342   -1.91172869992449
H           1.07904019226020    0.16780163504674   -2.03605603172556
H          -0.60373367899676   -0.96725698671430   -1.59985423632001
N           0.83510195309145   -1.56087879438313    0.87525655121501
H           0.01458232798345   -1.66869711105322    0.23801630906987
H           1.60081519873326   -1.13759984574885    0.28970025513205
H           0.61713614467152   -0.83028164558287    1.62469354106745
H           1.11682795236594   -2.44382569353850    1.28781662780718
