    26
        -50.44710524  Gyration_radius:  2.53787184544 Dipole_moment: 5.502
 S          -1.51508163671428   -2.07061050588375    0.65439230723255
O          -0.51576510714607   -2.88034448642289   -0.01867767372839
O          -1.07879291324867   -1.49355990469371    1.89741355783282
O          -2.06016650132352   -1.04577439900143   -0.25464772735961
O          -2.72102145321313   -3.04174435071022    0.97917981874381
H          -2.74236450295376   -3.59209517060089    0.20318799818616
H          -1.23277375456057   -0.56907698907031   -1.31003502280143
O           1.30348513052871    0.10913875980767    1.59209598821924
H           1.05977360152143   -0.62223913357838    2.16879445201434
O          -0.29016960985851    2.27241098730521   -1.20991268641625
H          -0.34941405855656    2.99253048651640   -1.83853179933464
O           1.36971587695539   -1.22954589670650   -0.70658371663156
H           0.81791182382497   -2.01150879224509   -0.45734364217506
H           1.45562875686176   -0.70675661981850    0.12964556133655
O          -0.49236804880360   -0.16643885588086   -1.94708184389142
H          -0.46119465326491    0.82627334808853   -1.72378132082117
H           0.40066066203832   -0.59737345856225   -1.51833064077491
O          -1.12654062358540    1.16336815692178    1.49450194986562
H          -1.47526589474199    1.36633418703718    0.62239709147442
H          -1.37528670680740    0.24069882799159    1.69051133255329
H           0.48243795235205    0.65898973615735    1.57300388170154
N           2.22514524107827    2.09118314893246   -0.39581933966385
H           2.16383456958856    1.53577310741773    0.45253084576225
H           2.72952431073568    2.93939557845383   -0.17067100065645
H           2.77968354742874    1.56217506251454   -1.05833638480808
H           0.64840398192055    2.26879718600904   -0.84790200580957
