    26
        -50.45621145  Gyration_radius:  2.38775371416 Dipole_moment: 8.853
 S          -1.10607041250476   -0.84231014008459    1.60786399187217
O           0.30568252379133   -1.12185318035168    1.27188281292027
O          -1.58810208617685   -1.56297270477361    2.73212037607555
O          -1.30034309337019    0.61352362518283    1.66030332295815
O          -1.91398585920013   -1.32268422496371    0.33203000413112
H          -1.64772156223634   -0.68965821003476   -0.36834285702192
H          -0.09694726250245    1.31622250697102    0.93707522529466
O          -1.28211752190144    0.35127024051205   -1.64885310220851
H          -1.92920495040620    0.16327401401220   -2.33072065722208
O           0.63645659691237    1.77769187625511    0.43966244050307
H           1.39797347648485    1.72750954862310    1.02305002404906
O           0.39671832262962   -2.27038271503065   -1.04161573703247
H           0.36507519552568   -1.99897577264105   -0.08770822262226
H          -0.50557003022856   -2.51533908415517   -1.25693600677210
O           2.80330838703168   -0.36490567019371    1.04577652659122
H           1.87602880578582   -0.62342445114694    1.26459285817328
H           3.35475828899440   -1.04451222514943    1.43507486673833
O          -2.28856230252625    2.26090034906321   -0.14903717909546
H          -1.68238753156416    2.99579322027384   -0.02871995796061
H          -1.62619040347786    1.15285776146408   -1.17229497292321
H          -2.14899594070469    1.68696620768107    0.63593863116572
N           1.60549922200025    0.06764188875242   -1.30049425090813
H           1.94225778265681    0.41588269693588   -2.19016466107858
H           2.37010665146353   -0.16722788612139   -0.63396403355382
H           1.04118896061082    0.80067231958386   -0.76859077499942
H           1.02114473293679   -0.80595996066481   -1.40792866709084
