    26
        -50.46862055  Gyration_radius:  2.50721457159 Dipole_moment: 3.954
 S           1.05306648501201    0.33139335868248   -0.20003867745338
O          -0.20948957502594    0.84530649895769    0.37296485330365
O           1.95374416371891   -0.09198710684636    0.84995963803379
O           0.76869903108817   -0.74479403986712   -1.14467033581249
O           1.71805167409358    1.49750221657908   -0.95679066746906
H           1.04918845293917    1.81482032233387   -1.63540028597799
H           0.72256066804449   -2.08128859686790   -0.17742873379267
O           0.01154986717490    2.18336069772673   -2.76014021440858
H           0.48916439734185    2.33535862287252   -3.57793986738630
O           0.71072073773656   -2.68446173274411    0.60317078771348
H           1.60046726679356   -2.62505129755151    0.96252889035986
O           1.41771474961824   -0.15722862591254    3.42650804066457
H           1.76352635984940   -0.12752883850040    2.50299386130524
H           1.56313459679926    0.71883305572853    3.78659707090522
O          -2.63292560485063    0.73988557433246   -0.73432022249219
H          -2.90073018884324    1.63272794778906   -0.95946189305742
H          -1.74935535006018    0.82561047579621   -0.32075049876609
O          -1.16919046977957   -0.12763882136501   -2.87221090003700
H          -0.50208238544585    1.33107859762429   -2.89339574709483
H          -0.45579457816354   -0.53756040706765   -2.34471817848199
H          -1.90248310445224   -0.00124707630093   -2.24198558054813
N          -0.69803030811955   -1.02908393492661    2.08769385118013
H          -1.64796994464182   -1.22647049391053    2.38295893006753
H          -0.05896890218423   -0.76948859214873    2.87366100831998
H          -0.25013592965336   -1.84171726358481    1.56653290606720
H          -0.64443211896011   -0.21033055070573    1.40368197484962
