    26
        -50.44710459  Gyration_radius:  2.53822777261 Dipole_moment: 5.502
 S          -0.86473224420368    2.36923887067318   -0.80559682257764
O          -0.21046397902068    2.89237484303357    0.37991389673295
O           0.03375586011749    1.91155398454317   -1.83129101740825
O          -1.84971996834284    1.33204593879731   -0.44763395308114
O          -1.70332452486000    3.56690863539219   -1.40989155833210
H          -2.03392634512810    3.98941206392873   -0.62391675870362
H          -1.63434764704643    0.57475517533714    0.73874764371119
O          -0.99943465112336   -2.34409524583057    0.48773159527992
H          -1.39599268345087   -3.12318915023654    0.87896620826850
O           1.85913211432537   -0.10112883891123   -0.86832903709042
H           1.96239717682096    0.73659979010528   -1.33168310339841
O          -1.30157386413358   -0.03342391195104    1.53558491472701
H          -0.27784659376588    0.29723821375546    1.63006839886529
H          -1.25847321057500   -0.97595199748173    1.15196997933893
O           1.00577508407090    0.86534446112090    1.45980256833507
H           0.69795760613906    1.75701968426302    1.16292466634569
H           1.41214863059750    0.45988405242467    0.65344991584935
O          -0.43690743636092   -0.72672815327285   -2.03837477733320
H           1.07359055202204   -0.50353141275778   -1.31232056550924
H          -1.16516305495309   -0.98244212807520   -1.46624527115145
H          -0.47990090761396    0.24334410468127   -2.13206287084720
N           1.61913851652246   -2.47075556492120    0.87757377774672
H           2.09540768046394   -3.35033391784782    0.72248585682530
H          -0.00190307008303   -2.44488738452979    0.56843870855917
H           1.86095826045757   -2.14151118765312    1.80462701286163
H           1.99344870911709   -1.79774094456227    0.21506058201126
