    26
        -50.44542023  Gyration_radius:  2.54980253831 Dipole_moment: 10.428
 S           0.31333735469805   -2.20331936890864   -1.56118859911767
O           0.80660495656548   -0.91097433309660   -2.01770733337724
O           0.96840079787248   -3.35172983886619   -2.08942888611850
O           0.27992656053218   -2.18677526089852   -0.06671970966356
O          -1.21658046189183   -2.24495300473725   -1.98669846424558
H          -1.48833841395609   -1.33542820305973   -1.80081317834346
H           1.28990633606340   -1.15676294287944    0.22836830607066
O           1.93590722924762   -0.38149361161174    0.41621541942957
H           2.75933913991189   -0.65386925737214    0.00914450558024
O          -1.98046105963732    0.27328624535669   -1.09298325953613
H          -2.91672380545735    0.31578156041990   -1.28985566399791
O           0.61540366406282    0.60433399402740    2.52581924275979
H           1.20026244433551    0.22141135002217    1.83856483436497
H           0.94729499025637    0.29731492578208    3.37058895499805
O          -0.02826749560410    2.91329969645979    1.26123304408300
H           0.23675105276068    2.18825876064454    1.86037475525877
H          -0.94524892109107    3.10839287971066    1.46251188158452
O          -1.49962246171164   -0.77890068579241    1.20986580355281
H          -1.89404956905665   -0.09944362483929   -0.16371339839103
H          -0.91172304319799   -1.45956954151804    0.79312147766100
H          -0.91386176785396   -0.27150466706675    1.78971258098100
N           0.48932859616674    1.45158510827659   -0.94246767097524
H           0.93439142247822    1.83008322847339   -1.77224663069476
H          -0.40153423653002    0.99900674852149   -1.21939354870727
H           1.09896102768486    0.66843190103801   -0.56821019846257
H           0.32059568331837    2.16353793196254   -0.19409421468309
