    26
        -50.45572932  Gyration_radius:  2.67584829765 Dipole_moment: 3.285
 S          -1.70083607946844    1.99359020215861   -0.08764759358025
O          -0.31258573856061    2.45164281922185   -0.07368318213060
O          -2.18879452017971    1.64297895505764   -1.38823572437177
O          -1.88474694728798    0.90198361872070    0.87960193237951
O          -2.54473730174835    3.22407901749177    0.46044518940781
H          -1.90877965341350    3.72483790068286    0.96400490481180
H          -1.91537696911590   -0.38257147837518   -0.17957505682824
O           2.06885579894076   -1.14718508667411    0.69351290633631
H           1.86115235957549   -0.64557406551749    1.49208914523070
O          -1.73017246671103   -1.00053207942208   -0.92461785957360
H          -2.29584881742417   -0.67494325372598   -1.63131700059934
O           0.02131435126648   -0.14560356912356    2.35570165306533
H          -0.65767628406006    0.30731317997657    1.80302210441215
H          -0.21893387478852    0.04300579049158    3.26337860628829
O           3.07585343681962   -0.78098346407600   -2.00787947200276
H           3.86762535773705   -1.15894010547145   -2.39162252787328
H           3.06014094495343   -1.04930473906651   -1.08009393201228
O          -0.18487630085231   -2.53608626048028    0.89520182343376
H           1.40799532110619   -1.87948343952562    0.70524927762110
H          -0.35371481742368   -1.87710445670443    1.58696359986325
H          -0.79391744659776   -2.31659636538811    0.17916730151185
N           0.66854699043858    0.26826326689449   -1.12185413490661
H           0.39395841592417    1.23010342808560   -0.77536916045193
H           1.25344378966548   -0.21691365412177   -0.39058347777375
H          -0.21234941089295   -0.27869345062300   -1.25001932526514
H           1.22445986210013    0.30271729951928   -1.97583997701318
