    26
        -50.46379865  Gyration_radius:  2.52260279008 Dipole_moment: 4.529
 S           0.72973344071847    0.64435759872539   -1.61537334623619
O           1.50928388832519    0.10939779117380   -0.48376780091102
O           0.58382800323943    2.06763618403760   -1.52648625809498
O           1.48507567323356    0.26466723525779   -2.91888846249476
O          -0.57813451277060   -0.04134507525900   -1.67231827782722
H          -1.41360304023446    0.86205363773662   -0.65002523885047
H           1.47302215965300   -0.72285786671039   -2.94549838099466
O          -1.80179239162439    1.43063992524220    0.06602386977839
H          -2.11884450428059    2.21194209269959   -0.39148517816391
O           0.04597942550136    0.21050721980291    3.47478402306149
H          -0.47571406218011    0.42535476212934    4.24895703174283
O           1.08987868597970   -2.35486269609557   -2.80254141844255
H           0.30867760773154   -2.47121012908876   -3.34851493657449
H           0.80379486173450   -2.52087173232878   -1.88359517190600
O           0.03934343390096   -2.12122479125329   -0.24725365548583
H          -0.36348816269078   -1.41818167511105   -0.80930720490350
H           0.85790253357369   -1.70221567651816    0.05519011890658
O          -1.53006381156756   -0.99378952795081    1.72884137684789
H          -0.52729528723909   -0.36428519013868    2.90643469415289
H          -1.89518140312151   -0.28051386080211    1.19263026931137
H          -1.04514971172303   -1.57511511369865    1.11245970007394
N           0.57382795810486    1.69215277335569    1.32826567363308
H           1.03147219577695    2.59663992273397    1.35832697369233
H           0.49311184648788    1.23292847207709    2.26989997988970
H          -0.38013205213502    1.76991039448526    0.89853130086964
H           1.10446723562882    1.04828532555329    0.65471034895560
