    26
        -50.45137806  Gyration_radius:  2.4865656856 Dipole_moment: 4.450
 S          -0.39918473499344    1.70648859215936   -1.07508311670071
O          -0.48972903403810    2.33661955613831    0.21853318184700
O           0.66650345531635    2.15483895736121   -1.91498378786862
O          -0.29220388456779    0.18226878713852   -0.86637178641276
O          -1.74151680740446    1.81805853730137   -1.80822343032998
H          -2.38665258745447    1.46947527216066   -1.12028146492849
H           0.56911369680765   -0.08664025596480   -0.36849865083512
O          -1.66895654654437   -1.14317984501949    1.48377678366790
H          -2.16212015766063   -1.39172573921908    2.26791624817739
O           1.85939056209025   -0.53091088068282    0.25328164743785
H           2.41568526439245   -0.32407034759621   -0.52634981631381
O          -2.90590265705114    0.99558324332871    0.31484668387184
H          -2.54332683827186    0.12148418101026    0.57698453405296
H          -2.36865411522418    1.64728596360991    0.78268848849022
O           2.82023398296587    0.52471920249086   -2.00358426516209
H           3.58575597674644    1.09817230608684   -2.07373881390251
H           2.04257509761807    1.10901978749816   -2.09898977097969
O           0.18879133158707    0.61455609038039    2.18199740085312
H          -0.95427404289614   -0.52904388311141    1.79315128310703
H           1.01500501074999    0.25404404843673    1.83544784049651
H          -0.02337947590576    1.37101740287113    1.60490832483726
N           0.51424007519659   -2.81502223901541    0.11165508861774
H           0.34342509283976   -3.03310691239503   -0.86205127412545
H           0.64846802415664   -3.68647941734444    0.60888315689251
H           1.59645396228871   -1.48966875218585    0.21291594632996
H          -0.32974066076079   -2.37378364542983    0.47116957886468
