    26
        -50.45693235  Gyration_radius:  2.63300568964 Dipole_moment: 4.746
 S          -1.77179698568131   -1.74148852103551    1.06593356462774
O          -0.64066085805571   -1.86232920485095    1.99258830426375
O          -2.33715428563747   -0.41576780879146    1.06572566028673
O          -1.41171110295240   -2.23588536886571   -0.25419407604039
O          -2.88659015090503   -2.72633475006052    1.61758603106402
H          -2.44357746804556   -3.56691043829069    1.56126365726719
H          -0.17241348846766   -1.67955260044829   -1.03531216650557
O           0.59864522223941   -1.36178144833504   -1.58703945726354
H           0.77458750370810   -2.07584021098565   -2.20179723196538
O          -1.04280356990533    1.67954701147243    0.14673623190812
H          -1.72360217704053    1.05574857487379    0.47846655593834
O           2.48903108877719    0.04532532667472   -0.21786741342959
H           2.37483914821750    0.94020319100447   -0.57227584248773
H           1.93010831032471   -0.53803449193055   -0.76685858153225
O           1.51130975139225    2.61549431581514   -0.75783836739400
H           1.76104948831000    3.53745517128149   -0.69003989576445
H           0.62345012346972    2.53422736677290   -0.37793793340733
O          -0.36827874043825    1.05644975717402   -2.37809734329506
H           0.44042603589014    1.57307991173804   -2.44442814209948
H          -0.09091729105058    0.13594012724783   -2.20930770642657
H          -0.97895877569253    1.46064469426739   -0.81169288581655
N           0.68724142638027    0.32621585893213    1.69533673707835
H           0.95647521879150    0.75597542335081    2.57325320180272
H           1.52555988476902    0.14636704063409    1.07317538009595
H           0.17380011511926   -0.59922831629698    1.87909961655277
H           0.02194156647341    0.94047938868155    1.15552209256156
