    26
        -50.43565199  Gyration_radius:  2.57127088402 Dipole_moment: 5.810
 S           0.78924891297223   -2.17253077092654   -0.96153595520384
O           1.25391396800818   -1.41055779398850    0.15843900304342
O           1.50670075359612   -2.10653033512339   -2.18157087664918
O           0.80309541175606   -3.68912217536962   -0.48015650548396
O          -0.70806608435191   -1.92595878129813   -1.19976345408182
H          -1.16196251620436   -1.80158737668911   -0.30662045181067
H           0.73285049579521   -3.70001778819785    0.47384186594481
O           1.98013117411029    2.16820836845339   -0.34915665750259
H           2.93505378856905    2.11445107135072   -0.40239663569688
O          -1.50817129709302    0.84643975930134    1.79520389974608
H          -2.04810055553091    1.38897113872339    2.37067560315848
O          -1.85234229137870   -1.67698486836289    1.07722192875605
H          -1.66406643402845   -0.76290400793726    1.40524753512456
H          -2.80107335483634   -1.72126498918519    0.93638043539092
O           0.57160169346490    0.48407086876119   -2.03414076331087
H           1.19381295958640    1.04622364834362   -1.53372640968429
H           1.05492546626967   -0.28404344675104   -2.34653975982950
O           1.29641916351868    0.74947026572193    1.80990753899698
H           0.34254941987576    0.81859164683508    1.96738199306852
H           1.40165026041329   -0.07702068284772    1.31409076122484
H           1.73472170622401    1.72115355488123    0.49624056052103
N          -1.20333305718786    2.06253649596317   -0.47968958885674
H          -0.41703820332246    2.69406895298727   -0.36669330706244
H          -0.86810671874273    1.32927328893423   -1.10458691753036
H          -1.42661749243487    1.33937660772640    0.90396646635089
H          -1.93779717903756    2.56568734870384   -0.96202028859956
