    26
        -50.45420294  Gyration_radius:  2.65201500856 Dipole_moment: 5.873
 S           2.10926751435017    1.81545339166522   -0.75521648053866
O           2.64747750547427    1.15548102880554    0.43487489422721
O           2.67201480709445    3.09368163635057   -1.04245545431888
O           2.52977331652962    0.86121987949484   -1.99255475712227
O           0.64974725068283    1.74057951753051   -0.73783675128604
H           0.34471784515899    0.27458942516862   -1.32215935233973
H           3.33874275026353    1.28493035543186   -2.25781840808722
O           0.17740265611774   -0.63888018272634   -1.67131201312041
H           0.85423907339232   -0.75843543450059   -2.34065489302938
O          -1.50240128907153    1.19219951746393    0.74833107536730
H          -0.85942937658541    1.73535952458756    0.26016096234978
O          -2.30771111360282   -1.51467842713695    1.48297271995076
H          -2.18480648697120   -0.55479732695803    1.46332448429167
H          -3.02784579120506   -1.69316773371178    2.08847180561525
O           0.18299611383492   -2.30632235536453    0.46217902186626
H           0.19506252038914   -1.85260068668237   -0.40630980945884
H          -0.74322063910090   -2.33881662490076    0.73971915576958
O          -2.51907287710395   -0.37999799515035   -1.19697404411954
H          -2.69692113180676   -1.18873758069251   -0.70731416239308
H          -2.00043693055162    0.75595574296479    0.01991272814963
H          -1.64629485491049   -0.49520205314871   -1.60849967103472
N           0.75485779451372   -0.04094564389188    1.69418606142909
H           1.57189307129476    0.45502721638887    1.18799552375657
H          -0.12753130739550    0.46156775860875    1.44569591528995
H           0.67155451217679   -1.02764353074832    1.31607173417003
H           0.91592508700816   -0.03581944882807    2.69520970459950
