    26
        -50.45313672  Gyration_radius:  2.52825258546 Dipole_moment: 7.511
 S           1.77697586298621   -0.74958865409532   -1.37784644667348
O           0.97111363132883   -1.82650405387979   -1.91557669946415
O           3.04097107610622   -0.50823209475596   -1.98198547750660
O           0.95137463593405    0.49990412937548   -1.29460391800870
O           2.03432731901160   -1.08231712497911    0.15838452012893
H           1.26759413777253   -1.60485213686128    0.46540493808885
H          -0.59409174686997    0.67877053228302   -1.46339159949590
O          -1.58118573084844    0.84450740653616   -1.47388525197845
H          -1.81030048698345    0.98315879064877   -2.39439478396953
O          -0.11551079651636   -2.36540388158730    1.13014837878292
H           0.05889217329000   -3.30670827760752    1.16821532952785
O          -0.24675482595317   -0.16726400770523    2.68341731361076
H          -0.14420819334109   -1.03845149993021    2.25519291572713
H          -1.18948321066988    0.01045682133142    2.70829023784614
O          -1.33135669690816    2.91669298065074    0.25259747505828
H          -1.38230537830237    3.71060748786884   -0.28149683683160
H          -1.56339465469441    2.16801314805745   -0.33969489556320
O          -1.46204911154869   -1.91176588908911   -1.00702914653552
H          -1.75473205537176   -0.99127744772857   -1.08915799288173
H          -0.60513979188975   -1.95484836901575   -1.50255091899763
H          -0.74105628497320   -2.22681433752153    0.35101866247188
N           0.90244044234917    1.59895068044812    1.00984542200643
H           1.04067226990239    1.10707193825667    0.05100144743070
H           0.14072558414690    2.29469289911947    0.86240280641157
H           0.56816213409232    0.89256708281095    1.71096703927342
H           1.76831968788501    2.02863387724460    1.31472748181884
