    26
        -50.43565198  Gyration_radius:  2.5715385375 Dipole_moment: 5.807
 S          -2.34512228058467    0.75562076225647   -0.44927700020085
O          -1.47902731765591    0.97632965205932    0.66968342774640
O          -3.36118436926113   -0.22664822634928   -0.34737504913085
O          -3.05669740123475    2.15304277443170   -0.71935750963203
O          -1.52806003928664    0.55852443100163   -1.73497445871197
H          -0.71045228757348    1.14922190679571   -1.69311866460524
H          -2.49516614229019    2.84568463413852   -0.37282066815192
O           0.14648445365208   -1.94888402030975    2.21813596265345
H          -0.42353929627846   -2.04113533921961    2.98244294187159
O           2.33984272901391    0.83031427739403   -0.22538807178813
H           3.29334397224166    0.91335399341666   -0.25661220751800
O          -1.12404135583829   -1.83607180096162   -0.23797658905478
H          -2.04590121043221   -1.57011658969591   -0.21249838293757
H          -0.81480333737411   -1.93256273419546    0.68322728780392
O           0.50632275807637    2.11053230427390   -1.64034498781496
H           1.17429579717133    1.68885693997869   -1.04495440403790
H           0.90154702999527    2.13067469229799   -2.51515459772321
O           0.80066152828464    0.63996757853803    2.11338318486457
H           0.46033135592980   -1.01284248334210    2.23107140845438
H           1.43754629492298    0.79511424078034    1.39940249392930
H          -0.06019946638489    0.85360184667008    1.72186276743134
N           1.69208931399153   -1.66366119091165   -0.55422046288215
H           1.74206612622915   -2.09831738790045    0.36146099258892
H           0.69756797325270   -1.62872484501882   -0.77832475620486
H           2.11694553571256   -0.15457469746037   -0.38070019488858
H           2.13514963572363   -2.28730068867144   -1.21757246206025
