    26
        -50.46058827  Gyration_radius:  2.64063749685 Dipole_moment: 5.038
 S          -1.77674221586269    1.34650905319846   -1.51737296539695
O          -2.64363956179787    0.34681326685357   -2.08164814822256
O          -1.95327306199564    1.59725559476031   -0.10350097744790
O          -0.36125402492425    1.08374577804396   -1.82470017904753
O          -2.13020089478263    2.71506570639590   -2.25844414790762
H          -2.51658782067870    2.41624285588186   -3.07621660440921
H          -0.66633174509837   -0.38928661511999   -1.24809960982023
O          -0.80136235627248   -1.29325035062252   -0.87587837708896
H          -1.67035002302440   -1.53033112591497   -1.21386410450994
O           1.76854807169759   -2.24181272324111    2.11815197164921
H           1.62476020422180   -3.14712705646052    2.39581185528447
O          -0.11472343629984    1.64091824153924    1.69343760941551
H          -0.33772160368105    2.33980425853399    2.30941377078613
H          -0.82751767597664    1.65878322740528    0.99597757578359
O           1.73156456279781    1.25916221441956   -0.25180693377100
H           1.27056296916025    1.47511618623908    0.58088162660444
H           1.02799892520160    1.34768916756141   -0.93605196730192
O          -0.54932983171217   -1.05534815260300    1.90895218614229
H          -0.81476354352551   -1.17887704882304    0.98261051420639
H           0.88493076871167   -1.78574108174752    2.19392923025848
H          -0.42594014502277   -0.09455148462693    2.00674737099952
N           1.87565478866151   -1.32507037275728   -0.37095790418633
H           1.91070380589405   -0.23536424130240   -0.29233649226173
H           0.92226647913276   -1.54824176390561   -0.70350823090247
H           2.57841157136663   -1.65975227752953   -1.02012779162878
H           1.99433581378824   -1.74235125617038    0.58860074268978
