    26
        -50.46489064  Gyration_radius:  2.56129543608 Dipole_moment: 3.810
 S           1.01974884045867    1.44549248102445   -0.93411689876561
O          -0.20292055330494    0.94426597290723   -1.55932719096973
O           0.89733942123529    1.48293657289667    0.51044223855771
O           2.19569687164007    0.75246411145815   -1.41366423373353
O           1.18020360727470    2.95191945725984   -1.40148688697714
H           1.66985847027391    2.86928488546129   -2.21382627560980
H           2.79141103157903   -0.07579690593658   -0.02966884073383
O          -2.48966994520449   -0.06244422369456   -0.75342930465979
H          -1.73542057723256    0.45193480280147   -1.12028527896760
O           2.90230979449674   -0.44786991187319    0.86664853871797
H           2.61734940010410    0.26137664850061    1.44907216556330
O          -3.28013197411436    0.59753510412517    1.94941247687250
H          -3.95144586659965    1.24217922836622    2.17515873695367
H          -3.29191185340216    0.51119290525757    0.98737303949332
O           0.96106710264187   -2.30220163652810    0.86058405111035
H           1.79319422084641   -1.79137270127298    0.97352245193347
H           0.80697898069541   -2.29397305540648   -0.10604017981146
O           0.63073154612729   -1.58985690154331   -1.73272259863286
H           1.54013891413093   -1.48645420703088   -2.02549602144738
H          -2.63411860948894   -0.78214887391113   -1.37135659470238
H           0.27535659996759   -0.68109782633903   -1.73830108097816
N          -0.74669400031804   -0.40755088496658    1.35113824296941
H          -1.22436091557761   -0.27919460913994    2.24040590322946
H          -0.14148713375704    0.42287994829604    1.12559554970667
H          -0.11346437282758   -1.27563542559745    1.30201015385043
H          -1.46975897964226   -0.45786496503693    0.60835784705275
