    26
        -50.45220437  Gyration_radius:  2.46089941576 Dipole_moment: 9.116
 S           2.17597811682483    0.10133205184735   -0.42920279795134
O           1.89497249299226   -1.33602149795165   -0.26397157729346
O           3.49161737642579    0.40936803416520   -0.86741948328626
O           1.12984210745865    0.56528585634119   -1.55229816937544
O           1.74064210033729    0.83459009337779    0.76646531170762
H           1.02233981132848    0.28618678227901    2.08076782688303
H           0.77849402972441   -0.26329869537908   -1.93650398184733
O          -2.24553087819038   -0.49289602639503   -0.74045453061308
H          -3.19690101012328   -0.42163033172598   -0.65830227057425
O           0.48604749508160   -0.11142478965272    2.82081714482493
H           1.12287826266360   -0.37918004391688    3.48449769879646
O          -0.24325628091533    2.53390492051577    1.34136023774741
H           0.59341039634104    2.09914952533833    1.08129826839981
H          -0.49890482393876    2.11080192953658    2.16453143922867
O          -0.37421905740060   -1.39351900156221   -2.54944482500612
H          -0.56803599626075   -1.14975870928156   -3.45629560408584
H          -1.15717305833377   -1.16347492538599   -2.01883804566414
O          -1.25328885493153    1.85186697618285   -1.03071135196263
H          -1.90023378172330    0.45549460117118   -0.84120672911764
H          -1.04899364036447    2.24534596675886   -0.15396596097198
H          -0.38076276595021    1.63187048545584   -1.39558788399835
N          -0.34532239683149   -1.69813143548409    0.83814148005194
H           0.62307356301878   -1.57621337677791    0.29891739619668
H          -1.11079758333763   -1.26959216493116    0.28700997752821
H          -0.52744442590926   -2.68358666423717    0.99169632896128
H          -0.20843118811956   -1.18646953032382    1.73870009141415
