    26
        -50.46146380  Gyration_radius:  2.62303893503 Dipole_moment: 1.535
 S           1.75814644013860    1.52587343691240   -0.32844372327159
O           1.25396458662515    2.49011401601186    0.62540808491839
O           2.56157975789355    0.48392792470602    0.29450199863132
O           0.70375217934141    0.97735666777459   -1.17237053987756
O           2.72610744293190    2.30474656632765   -1.31679763632682
H           3.44390088267188    2.56533385696603   -0.74780344981223
H          -0.77220556232144    1.52149210241726   -0.75680171205149
O          -0.36663223806630   -1.51074558214208   -1.27224942942180
H           0.09379932362509   -0.69674171054822   -1.54299037214755
O          -1.67957529965763    1.77956320977527   -0.45498860507689
H          -1.78015162715644    2.70094446933172   -0.69806657494594
O           0.37092372416976   -3.68196814791214    0.44984241924226
H           0.12424868095925   -3.18403690594587   -0.34185415542283
H           0.59128497373083   -4.56655226004263    0.15691027678264
O          -0.60782826369007    1.22232895724474    2.02004213229984
H           0.13348825920228    1.79153059303680    1.72023000431349
H          -1.29405041436389    1.39654028805847    1.35583614367267
O          -2.89222179990056   -0.56235308290726   -1.12405654957656
H          -3.45172166122200   -0.79994625198197   -0.38323418899640
H          -2.58157441312323    0.34772062481434   -0.95800653345667
H          -1.32091751247893   -1.29752302824427   -1.33584013428867
N           0.59289171140121   -0.97859981069617    1.18938312535820
H           1.50540796434670   -0.52365927509492    0.91203888857542
H           0.11988774588731   -1.24669253633895    0.28897648257930
H           0.73535892156369   -1.82621955501777    1.73418323885185
H           0.03213621756654   -0.23243455653895    1.68615078940273
