    26
        -50.45871046  Gyration_radius:  2.48547109676 Dipole_moment: 5.813
 S           0.97540011045969   -0.34911438257262   -0.50344210823887
O           0.39529381753540   -0.59518798570159   -1.91608149721361
O           1.30507001223193    1.06593583117138   -0.36413813387304
O          -0.04805198893645   -0.75180984415828    0.46137823602546
O           2.18604331637442   -1.15144301986531   -0.34645283792736
O          -3.41487946610422   -1.14999466270506   -1.30079125760519
H          -3.84944550516141   -1.49882692097536   -2.08047053403354
H          -2.73235388030300   -1.81090007437153   -1.04301541148358
O           0.54506932651959    0.71364368666827    2.51793528511056
H           0.17478889953450    0.04500333732263    1.89237020107178
H           0.12447272322013    1.53406523976316    2.22225436432758
O          -1.28892081759215   -2.72097913671878   -0.82822342188879
H          -0.87145296900610   -2.09788907879222   -0.20017632544115
H          -0.73318544713548   -2.68533255568695   -1.61148895671896
O          -0.71266195688659    2.39119573502823    0.56004589621381
H           0.07732343126979    1.93220406280153    0.18084587316689
H          -0.71458652350632    3.27296774448863    0.18360785018263
O          -1.67788705373059    0.85072870218588   -1.64017468145313
H          -0.44033803233999   -0.00193652708487   -1.92805432624246
H          -2.39915812286086    0.19362166537158   -1.49428252621977
H          -1.55136708183872    1.30311186483746   -0.78932118231896
N           2.96454396909382    0.30404702950000    1.63116749463082
H           3.31577570981250    1.14791194145467    1.18436204480268
H           1.99747539381193    0.53025445138737    2.08052361090519
H           2.74637921903715   -0.39832475213502    0.82854560441400
H           3.62665292648295   -0.07295238123155    2.30307675981202
