    26
        -50.45335349  Gyration_radius:  2.554440078 Dipole_moment: 7.154
 S          -2.16461253348129    0.80236590159117    0.23397926264902
O          -1.63126448803680   -0.54425888692203    0.09272989660579
O          -3.58491458246717    0.92533299619377    0.20305644565269
O          -1.74586491315243    1.20822001165770    1.77192939090829
O          -1.43363361118763    1.75686726327182   -0.58956009082794
H           0.11573346348687    1.83109615669227   -0.75530238365881
H          -2.60244611888531    1.39970251255205    2.14097807953909
O           1.11732113605633    1.85006890993423   -0.75894198638497
H           1.36406109532318    2.75009722920811   -0.97468335859358
O           0.63190158511854   -2.02125708968997   -0.01903282266812
H          -0.33475011085895   -1.99524027688444   -0.05631542038821
O          -1.49087778253051   -0.23921068663062   -2.56409120990986
H          -1.66286656121981   -0.50125794555252   -1.64230424642613
H          -1.67366998581873    0.70421182976306   -2.57972465078619
O           2.40896370303650   -1.79411643616085    2.24173758527388
H           3.06328689772784   -2.43143226001401    2.52901341371647
H           1.94241188058880   -2.19428267641562    1.49426747034073
O           1.16331549124973   -0.61452092019708   -2.16647418675766
H           0.25025269201651   -0.56041451333350   -2.51827268186096
H           1.34728591256681    0.26632295874097   -1.81086102638283
H           0.92761399812772   -1.64376278142587   -0.89316566282122
N           0.80437397776422    0.23119778588077    1.34946002653738
H           1.46622566971182    0.03296897415612    2.10174862526769
H          -0.11846665964328    0.52663945935428    1.69086505720562
H           1.15728859109470    0.94236470199330    0.67664455500593
H           0.68333126324434   -0.68770222785762    0.80231993874883
