    26
        -50.45335346  Gyration_radius:  2.55424549569 Dipole_moment: 7.151
 S           1.08503117494691   -1.23558095254998   -1.63669166800930
O           0.02608179712970   -0.23965400727928   -1.70609376491110
O           1.40184317507740   -1.90549166403157   -2.85490716792792
O           2.41952144249608   -0.33576698822778   -1.29786881392016
O           0.93728780086106   -2.09319783103983   -0.46799667090284
H           0.57022120822818   -1.63140228549722    0.97695740568402
H           2.97424389545532   -0.56033795916617   -2.03844108735269
O          -1.41217731532395    1.55246641262492   -0.27931054390744
H          -1.24535396302644    1.12451082387028   -1.13107315326141
O           0.39325945467336   -1.24589784118522    1.88426221972798
H           0.75649733063393   -1.87077725332988    2.51279356805698
O           0.10368282006011    3.57798282320272    1.10574761277704
H          -0.20028534079021    4.44482594560486    1.37598069429678
H          -0.62636964490082    3.16710016994074    0.62125373706176
O          -1.80043361084510   -2.09950587758891   -1.09411744106876
H          -1.24314083356629   -1.40208981096263   -1.48271863018284
H          -1.17967754582901   -2.79451143331556   -0.85888514579616
O          -2.23367682153882   -0.53576489622017    1.07604832175291
H          -1.88472179633396    0.86092502933422    0.26157539347550
H          -2.29378667851259   -1.16412288448060    0.32644422243329
H          -1.44310271643685   -0.80408706316156    1.56507713262728
N           1.01093657461345    1.04227141189870    0.63952091050266
H           0.89055722358256    0.28734357822983    1.34555544937766
H           1.32771840834058    1.92260903880733    1.04939059950233
H           1.62562655842328    0.70137929679783   -0.10976835423528
H           0.04021741257713    1.23677420775941    0.21726518413511
