    26
        -50.44555166  Gyration_radius:  2.55432047768 Dipole_moment: 9.505
 S          -1.77760418799326    1.85955151583873   -0.83679195250656
O          -2.79987093545810    1.06972486722871   -0.15250989918547
O          -2.23530512817533    2.93200288170040   -1.64884157876938
O          -0.86308579297537    2.46127062628593    0.30521516126627
O          -0.85574820137739    0.93398767699561   -1.57037640953453
H           0.64944015382851    1.10787732137127   -1.15037250317480
H          -0.91735642502352    1.79021216068054    1.02424808559575
O           0.76543643701328   -2.40119089619116    0.57608273007473
H           0.99768818167112   -3.31129388198754    0.76210529125992
O           1.60835809336030    1.11451749306527   -0.87172425213561
H           1.89112354002406    2.02437326191811   -0.97435275378245
O          -0.86822283068912    0.54498771466936    2.12024096536632
H          -1.03586215521920    0.92485927671094    2.98329928605895
H           0.10810813585513    0.36874140836050    2.06708832912302
O           1.65625070197042    0.02053592072412    1.64448124448576
H           1.72739435016948    0.49345798137086    0.79272182618945
H           1.50161243979542   -0.90788381704253    1.41477802604825
O           2.09656811649806   -1.47904715314811   -1.53690954252130
H           1.92482565159885   -0.52192414114274   -1.44561914839532
H           3.04547146280930   -1.57199295340016   -1.63592592741825
H           1.23057737066557   -2.14965922951617   -0.25656568471089
N          -1.56725519621232   -1.11962013653986   -0.29941605419692
H          -2.09405206054485   -1.85403871754462   -0.75862425747569
H          -1.10277946793633   -0.45143844769846   -1.00813318913955
H          -2.21350532334612   -0.36786468257044    0.10802589881270
H          -0.87220695027082   -1.51014605016041    0.34787631869407
