    26
        -50.46104799  Gyration_radius:  2.63134946781 Dipole_moment: 4.589
 S          -1.74019975540996   -1.91214082592266    0.72435400130835
O          -0.58770946769892   -1.43852181090851    1.50690087273581
O          -2.32111033202189   -0.82389414259506   -0.03350645082946
O          -1.43142906683886   -3.09606027242258   -0.03045996251445
O          -2.84213676688802   -2.33914485907838    1.79752993607122
H          -2.71257824609816   -3.28020549928993    1.86898830750246
H           0.43271762729268   -2.33213883525998   -1.18030621534762
O           0.69955631648827   -1.51027977858557   -0.75808497991478
H           0.18885196360399   -1.51987240956302    0.08442257523064
O           0.21515857372863    1.02748984267356    1.85423706424866
H          -0.13053140573336    0.10614694591930    1.92028626066184
O          -1.58444922657828    1.63147057205055   -0.08142124427344
H          -1.89066945399496    0.68091289901994   -0.04278359107235
H          -2.38679422977998    2.15385431365797   -0.11969192620485
O           2.24915709959173    2.19507957178480   -1.60923721454633
H           1.98373095031905    3.10669230172410   -1.47971193106200
H           1.45154185422371    1.72496327662205   -1.97900294608018
O           0.07113815375792    0.84986543855787   -2.13721891500519
H          -0.41460880455906    1.46439803338544    1.24988653831774
H           0.21488686428019   -0.06073550314859   -1.83279130805660
H          -0.59174755424092    1.21476771430533   -1.52531495422330
N           2.25521984631000    0.42889375035854    0.36571607289672
H           2.39254581282684    1.18388944504245   -0.35966914268118
H           1.45845816253241    0.73216656299960    1.04389559331757
H           1.90928922004966   -0.41803179078150   -0.11719871966448
H           3.11171186485618    0.23043504945220    0.87018227916314
