    26
        -50.46146384  Gyration_radius:  2.62305464379 Dipole_moment: 1.530
 S           0.14529986642924    2.02605950897068   -1.18305014641950
O          -1.19835366002707    1.94667533642649   -1.71421832807178
O           0.19105828294009    2.61231897696618    0.14862532703099
O           0.84297858626452    0.74773924464546   -1.24600618360698
O           0.96717504118105    3.00120749625340   -2.12873749565491
H           0.53786153551775    3.84007948096591   -1.99124402072801
H          -0.10237295928321   -0.45073141776054   -1.80843168917348
O          -0.69548468678673   -1.20080748939628   -2.06670706665202
H          -0.85642761350829   -1.09152692426668   -3.00493754888273
O           1.61859353254650   -0.94271652837385    0.72594921961296
H           1.66248416105809   -0.33126089225943   -0.03039090790111
O          -2.41645681254672    0.05228240960452   -0.31921707469969
H          -2.06348512128173   -0.65710200162356   -0.88006745184271
H          -2.18314013573666    0.86245384044898   -0.82183129296265
O           1.10435102454354   -0.54609815245284    3.51892836492442
H           1.76019747458182   -0.61102133714330    4.21377314630700
H           1.55532181490640   -0.77233824706947    2.69370539462303
O           0.49482777738937   -3.07497320257737   -0.49444199127105
H           1.35556929849400   -1.80509497719999    0.34224178793414
H          -0.21207522663409   -3.55851232459594   -0.06445171768567
H           0.07561861385581   -2.51353081584623   -1.17372436644940
N          -0.53546817235629    0.48897711472166    1.48288721488817
H           0.25038934002489   -0.17021422024656    1.24983815573784
H          -1.40275115617291    0.22749644329487    0.93763840725400
H          -0.66005356343610    0.48526776266536    2.49286362105242
H          -0.23565724194410    1.43537091589623    1.12100664260353
