    26
        -50.45433756  Gyration_radius:  2.45561551874 Dipole_moment: 7.266
 S          -0.02217855935406    2.21118784950933    1.12242013492074
O           0.10515819649453    1.54501795843049    2.40695103748686
O           0.22477788334887    3.60944378789903    1.07076139141358
O           1.08063471183778    1.49155706416046    0.19964018733272
O          -1.30979565324852    1.82188737955312    0.47348997968076
H          -1.36033889271449    1.09955923639749   -0.95930152814754
H           1.22186019268437    0.64017123838832    0.66692730281554
O          -1.45319784923484    0.53969565254969   -1.77694639771656
H          -2.15698322907440    0.94069790183271   -2.28829683905803
O           1.58780870569305   -1.96914731401302   -1.16314396202456
H           2.15654138862935   -2.52619964003473   -1.69491792177608
O          -1.10069103461190   -1.87044849753233   -0.47110879287155
H          -0.18559100568054   -2.10005649970556   -0.69739071450318
H          -1.32844324061036   -1.12314216411418   -1.05263904358497
O           1.42071127907018   -0.90540919431558    1.30941587012661
H           2.24093419524351   -0.89557434572422    1.80429322482488
H           1.57568226938593   -1.41336472274445    0.48854696806623
O           1.22294984960087    0.35707811302815   -2.28801296783790
H           1.42862002036106    0.96722783754147   -1.56213496027251
H           1.50204359010802   -1.09960212839907   -1.65293476310370
H           0.25256266352230    0.40411643198067   -2.35746849621482
N          -1.43996417859520   -0.39008723258750    1.70664742681435
H          -1.65278230766846    0.52266412760175    1.17568237549730
H          -1.22024079858627   -1.12713849793589    0.98191983160395
H          -0.60150092569200   -0.05561990944391    2.22969280612157
H          -2.18857729089792   -0.67451441232283    2.32790787040371
