    26
        -50.45263324  Gyration_radius:  2.69090845501 Dipole_moment: 5.226
 S           1.64900602914296   -1.46148606770776   -1.40001426488192
O           1.78653922295626   -1.81813239822429    0.00559090778224
O           2.42376458211631   -2.22724985694113   -2.32107228461336
O           0.10010648812112   -1.84696580868699   -1.76276156344701
O           1.68866576362973   -0.01294123844160   -1.57580996821035
H           0.44263805391119    0.97298344526757   -2.00320808742395
H           0.28790772112165   -2.63809805827422   -2.25584999259756
O          -0.27783945031613    1.63253045792660   -2.14706006658166
H          -0.24950555258365    1.85688037926685   -3.07797329373177
O          -2.08072965158478   -0.34229370872330    1.32641178096191
H          -2.36734636066979   -1.24359030241087    1.48515596859251
O          -0.79568801267131    0.44465807420997    3.80018959499889
H          -1.47925019818398    0.34193673465682    3.12581459509860
H          -1.19292754666336    0.92127050666556    4.52959491274974
O           1.53008315693759    2.11248919880779    0.06068249478228
H           1.90748009583196    1.45321243786471   -0.55111091966598
H           0.80667959035869    2.51274865093107   -0.43547169309133
O          -2.09052806630894   -0.18088424905034   -1.27839954049226
H          -1.47552702734092   -0.89666221251206   -1.49541841949463
H          -2.20374595625598   -0.19434665758608    0.34829664030492
H          -1.62834774567097    0.62649929409817   -1.57593861151314
N           0.64665970912133   -0.00233046747779    1.44962627449934
H           0.95250761715690    0.91587330894153    1.03887294848244
H           0.85101661927747   -0.02634814435142    2.44784675913873
H          -0.38207605544889   -0.11919298687648    1.34691500601712
H           1.15045698398905   -0.78056032139744    0.91509079232917
