    26
        -50.46798779  Gyration_radius:  2.53196360057 Dipole_moment: 3.760
 S           2.09191364980528   -0.95628518420632    0.09855374452314
O           1.41844058542581   -1.87994485694815   -0.79214588778338
O           1.67947475790614    0.42342573796542   -0.11365012528974
O           2.00337488555395   -1.35619095490209    1.49072211251909
O           3.62702317938761   -1.00058656847688   -0.29405080070812
H           3.79128331432184   -1.93606513252946   -0.25046588880939
H           0.54657109502806   -1.17252287296537    2.07756246524080
O          -0.40048131366709   -1.05031732504457    2.36277180066167
H          -0.49583021764527   -1.55467942877453    3.17234006915260
O          -2.22726127212825    2.22361616687982    0.21652786987025
H          -2.93271984284895    2.19617606217079    0.86400667488127
O          -1.11590652978112   -1.78567764373626   -0.17104554036978
H          -0.18758219027864   -1.94769950102931   -0.46432359845250
H          -1.04076519514873   -1.56184119323059    0.77434707292814
O           0.70899458806457    1.12754051612262   -2.41094902374562
H           0.87181883420701    2.07313448310073   -2.41182899346631
H           1.17222450131855    0.78314299474123   -1.60627830342250
O          -0.08263545177318    1.57396287546091    1.56155452900936
H          -0.30996018503143    0.76370840789800    2.04388816294130
H           0.64221952764262    1.29911950121546    0.96841649063782
H          -1.38243896374010    2.08748841669197    0.73004336455557
N          -1.69578066436189    0.33231746587014   -1.58465930502272
H          -2.01990296667820    1.08640687302638   -0.92828724448136
H          -2.38026383920839    0.15192271499945   -2.31014805628384
H          -0.77854359280941    0.64062511411666   -2.00737107772654
H          -1.50326669357479   -0.56077665842558   -1.01553051136522
