    26
        -50.46147048  Gyration_radius:  2.5917590414 Dipole_moment: 4.224
 S           0.64765398022679    0.19186186652184   -0.31698921347460
O           1.93020983909186    0.23779696605859    0.34287331409920
O          -0.16467358548320   -0.95899852466405    0.05190256045349
O          -0.18045302896538    1.46470729278080    0.09347962492143
O           0.73798061198261    0.29422994652399   -1.78383823006174
O           1.24826478028548   -1.47417687931407    2.28863403079147
H           0.49163761032864   -1.64767087114744    1.71012238215186
H           1.82855426437482   -0.95132785755346    1.71032998662932
O          -0.12223234089816   -1.92556339644802   -3.05837613854479
H           0.43540588375518   -2.67317331481696   -2.83804435603054
H           0.30905276095238   -1.14239353802671   -2.66169821450455
O           0.51746229771891    0.49922642434388    3.92333860959252
H           1.00772443462499    0.41873759414910    4.74284477013548
H           0.72946502046610   -0.30805233072059    3.39524005697713
O           1.27294880916207    2.22804861991606    2.02887894486345
H           0.94423639776207    1.72014784514779    2.80734000409366
H           1.94919850320589    1.66821527531320    1.61783610217832
H           0.30035544246950    1.87119486991591    0.88674485669380
O          -2.24008560549456   -1.38395463787569   -1.49537370051875
H          -1.59828706921199   -1.33839400967280   -0.74757951250145
H          -2.11501475388884    0.04574634911668   -1.90354897305883
H          -1.71559578654065   -1.81766860288409   -2.19937750834997
N          -1.69524595446608    1.04028834212940   -2.12400975436319
H          -0.63662127594892    0.84189049602062   -2.12420714295972
H          -1.86110396699782    1.67249513274932   -1.34241113922232
H          -2.02083727851012    1.42678692243852   -3.00411135998728
