    26
        -50.46516759  Gyration_radius:  2.53872168172 Dipole_moment: 5.803
 S          -0.53866618574073   -0.28918676520240   -0.10983635718878
O           0.18935886830370    0.60880684343593   -1.00179903970646
O          -0.27944365426230   -1.69110122048347   -0.47581623216409
O           0.12482494138832   -0.16577529975327    1.29885244875255
O          -1.94007377025963    0.02764616217500   -0.01130333604124
O          -3.11883734083040    0.89560052247840    2.20814671494175
H          -3.45667157160891    0.13819804146198    2.68744172598365
H          -2.79844571745508    0.55321370647286    1.34742074357664
O           0.90421930666694   -1.91679633444167   -2.89389604146547
H           0.33080474475397   -1.56625651472613   -3.57711579500270
H           0.37597868913922   -1.91139137945070   -2.07104658271615
O          -1.15453363517416    2.78708494951236   -0.27117214366533
H          -0.59887540489810    2.08787646797699   -0.66554572675150
H          -2.05755723755017    2.47289262297640   -0.37042548545072
O           2.58830328181622   -0.20802549044439   -1.68367510976378
H           2.52534666369284   -1.08069555629167   -0.47430255519969
H           2.25797049172250   -0.82574844151798   -2.36770019853519
H           1.78802012742823    0.32909554661453   -1.47690104415370
O          -0.67494503517920    2.02829791585587    2.23240670435335
H          -0.16018663959101    0.73611837564302    1.71877284521102
H          -0.77593662259794    2.53588233768343    1.39308604941518
H          -1.58764030952657    1.77700144613570    2.47801703618992
N           2.14972499250170   -1.70705754373151    0.35013390281508
H           2.12060094235106   -1.17290229840602    1.21713782268078
H           2.66421601798265   -2.57568892379006    0.45465487736428
H           1.12244405691967   -1.86708918018311    0.06446477652624
