    26
        -50.47081490  Gyration_radius:  2.46073561842 Dipole_moment: 3.369
 S           0.44733224754965   -0.70205473717554   -0.50794302776402
O           1.86498895046152   -1.33446741899018   -0.43565552442698
O           0.35739387603674   -0.03678677708691   -1.79336938698256
O          -0.54326656056474   -1.75554175439727   -0.35641703909209
O           0.36963136232717    0.25798218183724    0.60407290952312
O          -0.30618042280325   -3.27124314728305    1.79744708956218
H          -0.15303995753188   -4.16635918045022    1.49027589228884
H          -0.50507442103903   -2.73902899915742    0.99636215663539
O          -1.76798938730957    1.88949461852863    0.39178802829625
H          -1.03770329335971    1.36283316202809    0.76645820430341
H          -2.34291414321018    1.21394883694250   -0.02277390998417
O          -2.75052488795843   -0.31834215991707   -0.77300144782955
H          -3.46918294163386   -0.86127425618653   -0.44244240999446
H          -1.94520483909176   -0.87032264454437   -0.70911650646488
O           2.09493439683840    2.12861576890628   -0.12755095768789
H           2.83087622445952    1.65108072339475   -0.51433125196199
H           1.51691591503993    1.44515575969616    0.27609697853570
O           1.72999801758025   -1.56461213560147    2.11267807886161
H           1.98256822993732   -1.53129377722969    0.54077324918029
H           1.22373425212658   -0.74111350159792    2.08052377413292
H           1.06052900304525   -2.27508697008209    2.21941696808054
N          -0.14002340956054    2.48604291554523   -1.54819276342686
H           0.00025297318665    1.46606877550496   -1.82693296109057
H           0.75911765217333    2.73771593457038   -1.08973737192895
H          -0.37249152913109    3.08350536954330   -2.33283874751346
H          -0.90467731757123    2.44508341320144   -0.79559001325318
