    26
        -50.44032578  Gyration_radius:  2.56965046179 Dipole_moment: 8.475
 S          -1.93819289605575    1.71942551211010    0.04369253378877
O          -0.90700755159522    1.47919782156208    1.02252445533705
O          -2.71781239231140    2.88973974952970    0.19543335215384
O          -1.26978421953019    1.67903722232908   -1.36326455452149
O          -2.88296187130428    0.49003951687332    0.00267430929372
H          -2.34816795825707   -0.32627968970197   -0.17381063037562
H          -0.28107480940067    1.56224340222604   -1.28080766657866
O           0.55930854959461   -2.32434889870527    0.99041238111128
H           0.57722716340046   -3.05769961331406    1.60682207527905
O           1.29368874408365    1.29940323276124   -1.37757298510836
H           1.61693052167399    1.69237311472730   -2.19030601200096
O          -1.62663119851644   -1.76441126309349   -0.42567871508534
H          -0.82933821025556   -1.95354815738491    0.12846891790906
H          -2.29110880462858   -2.41186755094856   -0.18234329385122
O           1.91135887559622    1.94462067307595    1.29582319596163
H           1.90720595732084    1.72076618793934    0.35511879139514
H           1.01985641608449    2.27133741285329    1.46331751027189
O           0.66981961843889   -0.19103137162409    2.44142061101412
H           1.42253981405300    0.39139970091224    2.22873099994863
H          -0.08816929362188    0.32129533338377    2.11207748772401
H           0.65928265345266   -1.49812135251141    1.55377271111475
N           1.12773325109573   -1.29088896621182   -1.73204002885005
H           0.15726066051342   -1.43338942488128   -1.98866385938583
H           1.70961440597450   -1.78542270015298   -2.39606510260947
H           1.29339030592955    0.29508720606104   -1.51044094286136
H           1.25503226826688   -1.71895710779437   -0.81929553108625
