    26
        -50.47298391  Gyration_radius:  2.4878646983 Dipole_moment: 1.932
 S          -1.88312041420687   -0.99670642846379    0.26059336917282
O          -2.33154069094218   -0.23507798938537    1.40866068781217
O          -1.98683396679170   -0.29100725937190   -0.99883611720897
O          -0.54842928238603   -1.55513150149116    0.46736892586613
O          -2.86575853253190   -2.23596702280078    0.14743454038008
H          -2.98380546453345   -2.48125460389477    1.05897085831307
H           0.00737033470597   -1.81901270628332   -1.10249799431730
O           0.07969693392963   -1.61495283207033   -2.06000643037486
H          -0.78935333433382   -1.22584603361029   -2.23773664071189
O           3.12953377488218    0.09532591800373    0.32510070930419
H           3.58531197277014   -0.74710975011233    0.35629869443132
O          -0.78650589884700    1.80116700353537    1.85140987479940
H          -1.22302768149446    2.41387870556046    2.44539594532505
H          -1.41178360314716    1.04032516101760    1.73149198259344
O          -0.54946225935258    1.94026079175262   -0.85818322626623
H          -0.53656160465846    2.08787500855887    0.10493944491049
H          -1.20115953541455    1.22017779394886   -0.99075385023451
O           1.15302256683391   -0.17465340313577    2.00643128177184
H           0.64196108486637    0.63985903499430    2.12495199505008
H           0.55379142192821   -0.77620890731627    1.52147614273582
H           2.43403723255859    0.04767040989222    1.03962185752902
N           1.52264838082116    0.58094238887155   -1.73659795903242
H           0.75690366662132    1.23434425939410   -1.38050147987227
H           1.97412331387802    0.97303781812641   -2.55519113042942
H           2.22216933770745    0.41460416030993   -0.96314193682124
H           1.03677225723762   -0.33653999596691   -1.96669957472903
