    26
        -50.46293105  Gyration_radius:  2.62806978477 Dipole_moment: 6.464
 S          -0.18810945793597    0.41066433424942    0.59599959010877
O           1.17198949074517    0.64423717772618    1.09087902844439
O          -1.15720627522065    1.35438550174110    1.09782022202373
O          -0.07628659759713    0.56233546435508   -0.94424123008653
O          -0.58567707403353   -0.98421626417389    0.85907375344673
O          -2.48872809276747    3.01309321719942   -0.50693144409767
H          -3.07487211246521    3.55026795760989    0.02780252231620
H          -1.93024214206712    2.50774548818727    0.11928018494004
O           3.24563760870934   -2.14005342624667   -0.76036947791866
H           4.19900942746644   -2.23713300547996   -0.77569443937987
H           3.06148520291576   -1.19725698858344   -1.01659170088108
O          -3.18952849582729   -0.47043633893297    0.55373603570307
H          -2.31582484673703   -0.88088872776259    0.68720209847899
H          -3.14125036863150    0.33942167822960    1.07215491265628
O           2.67929716358527    0.40652093998225   -1.11137194798300
H           2.02639505650521    0.56218974231360   -1.79997707544271
H           2.20568982135591    0.63347226029107   -0.28496908259778
O          -2.46227957619579    0.61776501110733   -1.78511226775490
H          -1.01833026182726    0.55530985736463   -1.35195552666816
H          -2.90757641608988    0.11979001171032   -1.06245188195301
H          -2.63656849735932    1.55808666154136   -1.59702270414473
N           1.74565155905663   -1.83018819654553    1.40154701900498
H           2.34771409114175   -2.13718496004893    0.59143518568790
H           0.71254436432779   -1.83335936610638    1.14141995173555
H           1.93893565157071   -2.34133251328597    2.25554323503767
H           1.83813077757927   -0.78323552608174    1.50279504932531
