    26
        -50.44657204  Gyration_radius:  2.48371755839 Dipole_moment: 7.290
 S          -0.09099556783297    2.46537703168205    0.61087928771449
O          -1.21852526920736    2.04621110657505   -0.17114964719429
O          -0.26834897076525    3.53346579031615    1.52305120920754
O           0.42575370246246    1.18684565239929    1.39851292674680
O           1.11523692833387    2.73621448853415   -0.29767880555359
H           1.15769787683780    1.95870495110388   -0.95135424710174
H          -0.31011772671964    0.51187112919776    1.52813855188369
O          -0.81262361105929   -0.99858679853171   -2.08956687690661
H          -1.12267670585022   -0.95587171459844   -2.99509796625278
O          -1.20919172378910   -0.76379015042583    1.75111599509378
H          -1.15841735990660   -1.03464518897444    2.66921346398644
O           2.55753975789097   -0.31341166190225    0.55196440818240
H           1.88414742996351    0.24471047177834    0.98219808403326
H           3.40017900017764    0.12409238202456    0.68612106001821
O           1.30048317231733    0.63540672913879   -1.71292508355470
H           0.48295177753314    0.11067351640285   -1.86295262089727
H           1.84115364275054    0.11725249162885   -1.09229485334359
O          -2.72918937554790   -0.11841801287978   -0.52849209864590
H          -2.54098998741538   -0.48233232011628    0.34561006634071
H          -2.37976788185059    0.79024639410332   -0.48706860496128
H          -1.57526922539718   -0.69111323749472   -1.52564164974540
N           0.31051148628993   -2.30786865058896    0.29860607304658
H           0.33015602343365   -3.31291146981111    0.41047848737572
H          -0.64813128575087   -1.42483756354929    1.21058541174399
H           1.25717946557876   -1.95636004050917    0.39529585424329
H           0.00125441752173   -2.10092531551692   -0.64754842545069
