    26
        -50.44992756  Gyration_radius:  2.49619013195 Dipole_moment: 10.206
 S          -0.26046415994986   -2.03410006391636   -1.35462568830558
O           0.95905595452802   -1.43358286390657   -1.92667496466664
O          -0.84308913145875   -3.05615905614724   -2.14509543920897
O           0.21998232147394   -2.67895728425538    0.02842342164530
O          -1.16752450417051   -0.95361885623292   -0.93761452123619
H          -0.85869551325228    0.30942658925165   -1.98626967036520
H           0.15612395884893   -1.98358471241284    0.69575691807771
O          -0.46890405103822    1.00591127939811   -2.55753266910089
H           0.15681657763330    0.53354363507880   -3.11271962045913
O           0.19477252977796   -0.71876257535621    2.07666620315698
H           0.23260026767508   -1.31329969814783    2.82754119240621
O          -0.59546811104678    2.09786315250250    1.73535091169214
H          -0.18027055473117    1.27962043195579    2.03833566378154
H          -0.52115934316612    2.73909779594184    2.44335507983903
O           0.78240928561324    2.36898579297909   -0.67638050263291
H           0.13616564103189    2.47254644728940    0.03909121824739
H           0.27363973429778    2.03343849086933   -1.45731679256054
O          -2.23309838706311   -0.35156417749548    1.33484572094077
H          -2.02174030020093   -0.65582597293696    0.41788717311744
H          -0.78775981667272   -0.60495792000937    1.85518989104337
H          -2.36603949589530    0.59862238794899    1.25982064797384
N           1.86120991250060    0.06980879920603   -0.09740401676692
H           1.51215746317900   -0.58695033639899   -0.91457030845811
H           1.43512370215665   -0.24325044747942    0.78031529046601
H           2.87313355292946    0.04041086608704   -0.03987860081150
H           1.51102246699986    1.06533829620479   -0.32649651782331
