    26
        -50.46763471  Gyration_radius:  2.54647197111 Dipole_moment: 1.660
 S          -0.79722990848734   -1.38455906534562    1.05948900502402
O           0.40238539304200   -1.45559201125899    0.23359549000598
O          -2.00636731943318   -1.26282888434267    0.28243467322293
O          -0.85901084541260   -2.78306484071363    1.80780651940163
O          -0.69001773054333   -0.36407991847937    2.09390053687412
H           1.07015170238115   -0.02651170424651    2.30637434830423
H          -1.72817528076996   -2.81015799212146    2.19737339154873
O           1.97887958379783   -0.10627211034383    1.96884143921665
H           1.89763176042826   -0.82993501368182    1.33251822261840
O          -1.35053522315549    1.96057934251412    1.04676925317545
H          -1.27568139777772    1.09464949061532    1.50483644799609
O          -1.07487244615106   -1.84996890376308   -2.12693058231065
H          -1.59363183048009   -1.64609116605391   -1.32112325999870
H          -0.23444231179230   -2.17013760083256   -1.78548464253192
O          -0.67350461495442    0.52301068563800   -3.24584697081040
H          -1.53426688193490    0.87743508245405   -3.47393665233890
H          -0.83203284071796   -0.41451144451673   -2.97025007729331
O           2.62347231838691    1.89051910948363    0.31174925258781
H           3.55975528961488    1.83465481010848    0.11847812656406
H          -1.01537181152225    2.61746367028103    1.66098371488120
H           2.44937177889832    1.23264977984600    1.02734843191143
N           0.34285150482096    1.02770593218088   -0.82412275560330
H          -0.37089698551572    1.51120940670946   -0.23060041922600
H           0.04122796248449    1.00957599417807   -1.82740924479333
H           1.26351068972311    1.48165721383330   -0.66113532550301
H           0.40679946532207    0.04260013759644   -0.48565893311217
