    26
        -50.46017946  Gyration_radius:  2.70198456513 Dipole_moment: 2.943
 S          -1.75853092880062   -1.87998744806187   -0.59021918746793
O          -2.84126326023055   -1.04508393987533   -0.11221726508962
O          -1.21701215118049   -1.40322664979443   -1.85996733591456
O          -0.71845461841550   -2.09992294514349    0.40147968832770
O          -2.38048907321870   -3.31190262607271   -0.88415759949778
H          -3.13022680695941   -3.10122248243161   -1.43211175550991
H           0.81770958197663   -1.60268602490739    0.56198111991959
O          -0.63555126133409    1.81791169077345    0.99162657416654
H          -1.29691421107463    2.51068062002565    0.98128279221192
O           1.71989347610495   -1.19716449450117    0.51912136180557
H           2.31746212068006   -1.91003583399325    0.28943342876410
O           2.17197396970155    1.60456829365545    1.08011398756755
H           2.21701784126737    0.64292469655348    1.15190180789061
H           1.24980249743405    1.83584072785064    1.26435801717183
O           2.37956428985313    2.26181315326347   -1.55350462218909
H           3.00650519998141    2.95645758563583   -1.75288627846808
H           2.43091985383384    2.10915844563438   -0.58546773456946
O          -1.76827416617543   -0.22782876448002    2.12173289741440
H          -1.04561685493811    1.05878551566840    1.50124335033997
H          -2.35050586635294   -0.47329040519558    1.36696889106168
H          -1.14710027808357   -0.96318405441218    2.16008785882208
N           0.38965999889483    0.49571704977482   -1.15141569231179
H          -0.28553990977349   -0.18838720531242   -1.60101355459632
H           0.90032056783234    1.10852126967149   -1.79529066338780
H          -0.10753855788569    1.07946048294927   -0.44452599838029
H           1.08218854685841   -0.07791668726798   -0.62855409807886
