    26
        -50.47198567  Gyration_radius:  2.43360225909 Dipole_moment: 3.590
 S           0.28700761636825    0.66981150486485   -0.54113889360178
O          -0.75783764200039    1.48474598701538   -1.35236267852588
O           0.82832314049247   -0.31300034612236   -1.47955977099677
O           1.31195485044240    1.55003389079103   -0.02572357507950
O          -0.44552069287325    0.01313272394145    0.55087963571767
O          -1.24299333530891   -2.52200703648476    0.17043632924577
H          -1.15058719171363   -1.61537817587315    0.52215616781660
H          -1.55143730661234   -2.37210389551595   -0.74427869981689
O          -1.52500922912020   -1.33210176706826   -2.24420049895265
H          -0.64654965021189   -0.92745964941261   -2.11791821613017
H          -2.12265100860458   -0.60008019431225   -2.40720590802174
O           1.85538823537726   -0.65066163930804    1.70255745760151
H           0.92928514139945   -0.38363117476962    1.54710232639356
H           2.36277360549821    0.10171454526049    1.38143295275185
O           0.30529639071365    3.50640961209358    1.43293459878990
H           0.60009370561902    4.33365104145924    1.04856733981415
H           0.77851110060176    2.79582823760856    0.94583952733716
O          -1.96633436451386    2.28596942514657    0.75046826474307
H          -1.76450637036916    1.41538412959006    1.11917042772496
H          -1.28558270322734    2.88736761149797    1.12576671540892
H          -1.33571438759342    1.91252548836579   -0.64794930878081
N           1.33698735161013   -2.49170230514516   -0.14945519423695
H           1.27420174267549   -1.70604382023287   -0.85498937561509
H           0.30523178616346   -2.73988463184639    0.03385560947192
H           1.89412732501950   -3.27493094183420   -0.47137841991821
H           1.72554188012729   -2.02758863977231    0.70499320692279
