    26
        -50.47229303  Gyration_radius:  2.48042593557 Dipole_moment: 1.996
 S          -1.87662107661456    1.10458350450439    0.67299359870996
O          -0.88405959360100    1.46595443383111   -0.33457992985786
O          -2.42261359189653   -0.21645600213404    0.43796299454764
O          -1.37527317605522    1.30379640728734    2.01892913348359
O          -3.08125526007761    2.12078644309904    0.50653112209898
H          -2.76032840990683    2.87220013248999    0.99364654290910
H          -0.21132190892215    0.23027037090701    2.25304782062136
O           0.56486302684992   -0.37747257849797    2.35821928011731
H           0.52822975728846   -0.69608133668940    3.26150553732241
O           2.44536279313238   -0.15838852239795   -1.20595593326830
H           3.34880506717129    0.02500038789060   -1.46412821770107
O           1.17267800359176   -2.07991233877464    0.29994569959422
H           1.77009124494846   -1.53111125616115   -0.23958023983409
H           0.97684071195194   -1.54604889685732    1.09312934525997
O           0.05743322884852    0.23598099982013   -2.53568673749817
H           0.98670694505684    0.12775994106907   -2.26383328582756
H          -0.32000761326735    0.86345186671742   -1.88920149322083
O           1.60898534055377    1.53210615368143    0.59199734568257
H           1.50814787735736    1.00092933154677    1.39378746249320
H           2.19561702041657    0.53864502189121   -0.53304623202452
H           0.69404923409047    1.65857076337447    0.26433857582271
N          -0.99973283659422   -1.72491441840503   -1.15041901706031
H          -0.63191500278562   -1.03790760467218   -1.87665006477012
H          -1.47876438594066   -2.51372253919283   -1.56842457060658
H          -0.16729814457251   -2.02625494178505   -0.56199377497675
H          -1.64861923103889   -1.17176531253386   -0.52253493201066
