    26
        -50.47198494  Gyration_radius:  2.43374257429 Dipole_moment: 3.586
 S          -0.24416101545869   -0.56295134175145    0.66725214495147
O          -0.32311924474676    0.56470105868322    1.59563662287314
O           0.26836016559837   -0.13641240541172   -0.64261407239460
O           0.81840078936574   -1.52240742040525    1.27101354787909
O          -1.51147280196594   -1.24635609521444    0.53381384565150
O           2.29261066138119    1.12865765892291    1.61405659660825
H           1.35512387463673    0.90407441202095    1.76270269457871
H           2.77025185052616    0.30154920392916    1.70018172461891
O           1.58228811419115    2.20117772995901   -0.76705716748553
H           1.23578498549111    1.31266998498239   -0.97859980569539
H           2.09593489688579    2.04745497992646    0.04963227838451
O          -2.10252344888129    0.90924753733091   -1.23078881609835
H          -1.23227715167096    0.47180070898522   -1.29436785077604
H          -2.62311836873250    0.29554816627139   -0.70261132149539
O          -1.31178875615141   -3.45410420285626   -0.89958600805430
H          -1.62676641844253   -4.17866292690939   -0.35651966878131
H          -1.49827425584030   -2.63285489748856   -0.39283619152986
O           1.24014511296658   -2.67994953187368   -0.96656315806135
H           1.10513343965703   -1.81053867872648   -1.36724309792215
H           1.09450467866022   -2.10135693176373    0.49536569048873
H           0.38598652036459   -3.15189820529866   -1.08425404352800
N          -0.77388164742585    2.71704015697469    0.20327046347002
H          -1.45827923529940    2.29073060296253   -0.46469622346250
H          -1.07113543107614    3.61552575919202    0.56640264624463
H          -0.66344202508437    1.97943895478864    0.95341781197932
H           0.19571472103952    2.73787574278839   -0.26500865251356
