    26
        -50.44032574  Gyration_radius:  2.56959355521 Dipole_moment: 8.469
 S          -0.97113551119705    1.99419737989770   -1.33773883767975
O          -0.88868107071194    0.60133717505669   -1.70165034951263
O          -1.78174212103007    2.82859932331188   -2.14230907359526
O          -1.41416729131597    2.06498867504852    0.15451918476967
O           0.46283764215859    2.58330085621337   -1.29097673602856
H           1.01777946816390    2.04051125184288   -0.67367059631364
H          -1.60612155203796    1.15087803777109    0.50881785675063
O          -1.88307432894819   -0.21409474306041    1.29535085433400
H          -2.50502968956225   -0.03537028391221    2.00296178937331
O           2.17113241153042   -1.40787473167463    0.09005140747603
H           2.96448504265163   -1.85508085252468   -0.20802637718916
O          -2.16798752891508   -1.86247893132438   -0.97301937185936
H          -2.15505421239259   -1.10650432947463   -1.57132683814377
H          -2.13891578674104   -1.46573576760681   -0.09165408404430
O           2.07692778988109    1.24763756667122    0.27580782221420
H           2.10442087472291    0.26421136876918    0.17106914673917
H           2.93552217919289    1.57771506390989    0.00450328151659
O           0.42893955999838   -1.75403446434599   -1.78448163182181
H           0.13238593598368   -0.84464079630566   -1.95903209314612
H           1.47869059253085   -1.59215852817219   -0.61462452595352
H          -0.39232708774725   -2.18669109093338   -1.48538004576102
N           0.50892856885164   -0.42309446864363    2.34286775538041
H           1.03957780624291   -1.04434221145984    1.73884214437137
H          -0.97518490500874   -0.35269734985920    1.72297780038922
H           0.65649937788976   -0.71297470287404    3.30113668225016
H           0.90129383575440    0.50439655369471    2.22498486547848
