    26
        -50.45070766  Gyration_radius:  2.66613087441 Dipole_moment: 9.219
 S          -2.00592162793777    1.67727900554659   -0.96131011492973
O          -1.36492905838665    2.46120514530632    0.07846732285193
O          -3.31927647961780    2.08060286434483   -1.33657392345684
O          -1.08374454580462    1.92640935454132   -2.28962459273437
O          -1.82067512050509    0.23969510336559   -0.72636458175922
H           0.14447408206677    2.26257982010431    0.25800487556629
H          -1.67235485352705    2.47328730981709   -2.79924127626906
O           1.96581719222288   -1.81903629429307    0.22240438532062
H           2.90192715562228   -1.99933774996902    0.30945036133594
O           1.13735072916432    2.09244231678625    0.25387105668704
H           1.54741848304057    2.95779508832955    0.23250295636851
O          -1.29722790573886   -0.92681742028070    1.67484938144371
H          -1.64822100730187   -0.44481067146686    0.90792368342922
H          -1.16304694646862   -1.83789599956207    1.35959693015720
O          -0.30198809132673   -3.35072981881072    0.74871223315510
H           0.54277630771704   -2.94086009190677    0.50100908000307
H          -0.12858423526625   -3.90658202903846    1.51001441465763
O           1.19718541970990   -0.12402252700213    1.98024588608395
H           1.72234343008285   -1.18695761851940    0.98140097467499
H           1.21915899241219    0.75316501720655    1.57062715233724
H           0.23612752985860   -0.36816624245929    2.02422896647114
N           0.65835287171051   -0.02115568054143   -1.31975558964810
H           0.76552633345365    0.03097298856499   -2.32716696630908
H           1.14601431166478   -0.84412638867431   -0.90608973373444
H           1.01901812423998    0.84594412319446   -0.86222489737760
H          -0.39752109109037   -0.03087960458274   -1.08495798433152
