    26
        -50.46305417  Gyration_radius:  2.56976527617 Dipole_moment: 4.029
 S          -0.42034667968158   -0.04299048560392   -2.42317548637921
O          -0.62157858183909    1.22673156393019   -1.71833067528550
O           0.76044682835073   -0.72607367645528   -1.96530630100840
O          -1.62208960910372   -0.86024507186306   -2.40817210543965
O          -0.17417979458399    0.34635399265266   -3.94525935155183
H          -1.03662008393010    0.63524426920381   -4.22806518940219
H          -1.47362498880940   -1.50284923248640   -0.99477794631801
O          -1.32860261496974   -1.88155964944366   -0.08165887365208
H          -1.53951564261218   -2.81420603880735   -0.15617728237023
O           0.26881805269581    1.86164059588010    2.15469562926848
H           0.87358438296030    2.03657996914873    1.42442482619234
O           0.93184885783142   -0.39259869894595    3.28341892403942
H           0.74286749132082    0.54526480524711    2.99558520378232
H           0.16928963404566   -0.66487209630722    3.79612432845952
O           1.56153337594967    1.38023228310515   -0.34659466469442
H           2.25533579828270    1.30099202051356   -1.00401824625170
H           0.71891198361083    1.41855416256968   -0.87220941005015
O          -1.75437613175707    0.82711105411316    0.70146395763526
H          -1.48100446958491    1.08573254428564   -0.19811412453278
H          -1.89168666093377   -0.12536894919620    0.66165251892755
H          -0.56900226600016    1.58927738189135    1.72279678544600
N           1.13500284598420   -1.06441172449236    0.73155411107474
H           0.21197867015366   -1.40425466634444    0.37328552556622
H           1.85944134669289   -1.71190304867237    0.43960138489318
H           1.32121320886201   -0.12972617871989    0.27571580938508
H           1.10235503717515   -0.93265511534330    1.78154064221228
