    26
        -50.47014107  Gyration_radius:  2.40822971487 Dipole_moment: 4.177
 S          -1.47024138987493    0.94645238742998   -0.64559395250015
O          -0.42970322552167    0.81973651247131   -1.68225159479342
O          -2.69145659774293    0.28381836839819   -0.97943636959277
O          -0.91395297305947    0.42348318159967    0.62727451699392
O          -1.72695877671050    2.46039687764469   -0.43231238872797
H          -0.85257736353398    2.90533128430987   -0.59173297538443
H          -1.61901912928789   -1.15354323822728    0.35100215776364
O          -1.74630353633768   -2.07666552789593    0.05649758021481
H          -2.55672075439627   -2.03149845011738   -0.45924436851128
O           2.21112185508524   -1.18009567153314    0.64949206479512
H           1.62535259729181   -1.44859767110572    1.38975763604986
O           0.13503923664885   -1.49274462020829    2.32853766197821
H          -0.44322710317941   -2.23921147581691    2.15326427023932
H          -0.30054988965916   -0.72979990990329    1.91654323165064
O           0.72660488165443    3.12138519988749   -0.99437685975377
H           0.59390772753594    2.38191351896632   -1.60879689155410
H           1.22729923581429    2.74078953565490   -0.25279561740514
O           1.45068334796599    1.42916504620204    1.04533951805056
H           0.53651790273189    1.07517566509132    0.89321420118711
H           1.48434161396852    1.68805911558591    1.96821672637221
H           2.23390061709837   -0.20785199671736    0.71054567477529
N           0.51723761047393   -1.56707873668441   -1.31068026011664
H           0.19154987649030   -0.58450960727914   -1.57347569725591
H           0.83880387151970   -2.07977139764061   -2.12429170022745
H           1.29108884753715   -1.46441401012929   -0.57008834829317
H          -0.31273849252653   -2.01992438000163   -0.86460822594560
