    26
        -50.45621819  Gyration_radius:  2.47704690454 Dipole_moment: 7.627
 S           0.01231064844351   -0.92793984336361    2.06453986823620
O          -0.98038715748796   -1.61291814276421    1.19325773701142
O           0.13619479298423   -1.52474417421827    3.34722981347634
O           1.25566026662590   -0.74186588513383    1.31764796226243
O          -0.57237114623553    0.53740845853586    2.24664213596442
H          -0.16551406404982    1.04996057351753    1.52488980195027
H           1.84951576279500   -1.05738168082955   -0.04476384513859
O           2.18104741918370   -1.22941279508535   -0.98254572984583
H           2.92700999382996   -1.82208201680448   -0.88175411889853
O           0.37585399468688    2.12800248965888    0.27959887353396
H           0.61369190253606    2.93491952260830    0.73913509696529
O          -2.97300838152974    0.10335092869210    0.78139093857506
H          -2.35081708326761   -0.62383568882637    0.99900106758881
H          -2.93757603595978    0.68783604255556    1.54219054447397
O          -1.60153133598636    1.03864664159952   -1.30823745930416
H          -0.96657133720986    1.59413207455856   -0.82872482303216
H          -2.27383587960290    0.78669781734941   -0.63186455350823
O           2.37848366506553    1.44716029091036   -1.32916162411863
H           2.15661326577973    1.60452479500999   -2.24865891788312
H           1.17653776015665    1.85499881678691   -0.23238740305772
H           2.44013749673002    0.47712426389189   -1.21493786768824
N          -0.52920719868055   -1.35483948219096   -1.30300986973006
H          -0.92644262054844   -0.37593127664011   -1.46557920218552
H          -1.01241533849809   -2.04326901251117   -1.86875254302410
H           0.49056897805829   -1.38457433117281   -1.45376045131360
H          -0.70394837782186   -1.54596839613185   -0.24138541130543
