    26
        -50.46111922  Gyration_radius:  2.7133702379 Dipole_moment: 3.934
 S          -0.38199072465111   -2.22380636562963   -0.99409611614955
O          -1.58282201431051   -1.39526341846837   -0.92660412698298
O           0.77381214258512   -1.48699292474316   -1.45776427133375
O          -0.14483395048872   -2.91673907843276    0.26326230057504
O          -0.67499430531051   -3.33908660157893   -2.07969269835535
H          -1.45624585130631   -3.75341531103874   -1.72768327539112
H           0.09358985372108   -2.03090087605168    1.56080141862046
O           1.41718412039915    1.03346413602296   -0.91578254398422
H           1.18395782723799    0.23556458165106   -1.43198638293500
O           0.24381838088699   -1.39464538674956    2.31277510124142
H           0.05426396957486   -1.88460702240508    3.11382511170582
O          -1.81166982439304    3.00009580946623    0.74578066839296
H          -1.23973244097732    3.24167712885092   -0.01410968801309
H          -1.69371713921835    3.68831754232925    1.40149753925170
O          -0.04254252848639    3.35189572574313   -1.26806737476463
H           0.61034124516301    2.63600753446349   -1.18283158756756
H          -0.36516753443805    3.31350975334018   -2.16998046279940
O           2.49720732862062   -0.85735279193956    0.64420171859429
H           2.11595129818393    0.69727487756270   -0.32171977945534
H           1.96537702847852   -1.04289385908874    1.42827617597982
H           2.08198283778594   -1.36364978335662   -0.07192765211897
N          -0.74184297368069    0.51091581160939    0.63865819169190
H          -0.46078843841039    0.00113772672108    1.49170222193406
H           0.11654320606271    0.81293776776953    0.11777548261776
H          -1.23646966405668   -0.18315961229944    0.00894474772934
H          -1.32121183899755    1.34971464625425    0.83474529151436
