    26
        -50.46934675  Gyration_radius:  2.40584279307 Dipole_moment: 4.745
 S          -1.57690129884458   -0.17066266166200   -0.20132090602482
O          -1.03258375429884    0.87119260479925   -1.09094477866862
O          -2.57390404633155   -0.98574971935949   -0.83852791432007
O          -0.47781444401024   -0.98423337670563    0.33454635564978
O          -2.21246197651662    0.56975427682746    1.01695460795149
H          -1.68581515826018    1.41172222375732    1.10665518297588
H          -0.51807976948506   -3.05269412386365   -1.30891962419360
O          -0.83986130988251   -2.55087797302457   -2.06252702825977
H          -1.60599797366596   -2.04143146699463   -1.70884566322939
O           1.75877094722204    1.43567782355209    1.74640661184227
H           2.35112663818766    1.81073129368852    2.39959035402765
O          -0.58776313254778    2.58692742947223    0.87266646458570
H           0.29753045316975    2.32107461185058    1.18401629050642
H          -0.63211653948683    2.30651637653711   -0.05660495991016
O           2.11149766312258   -0.59316293243077   -0.16403403809079
H           2.26026322968430    0.21142425155909    0.35560962116485
H           1.23843691030669   -0.90856045428992    0.14650003462782
O          -0.00102068019388   -0.23479781127324    2.81240246924712
H          -0.20954314272429   -0.65119392158413    1.94679514015626
H          -0.82874728307462    0.14571745169060    3.11533676913897
H           1.18327141074694    0.78996162700988    2.22941627241232
N           0.74417241727715   -0.45335181776665   -2.40731489254951
H           1.07931982616762   -0.17748192090779   -3.32330616184839
H           0.02020427409018    0.21988789419074   -2.00702308589185
H           0.23237111842395   -1.37959443407065   -2.42299581461636
H           1.50564563816284   -0.49679526243182   -1.67453133820763
