    26
        -50.45621818  Gyration_radius:  2.47702529745 Dipole_moment: 7.627
 S           1.07497685963196   -0.67529735630120    1.87402118824428
O           1.63833179801419    0.61316325689414    1.38788584553010
O           1.64393236816447   -1.10639166611803    3.10172840273626
O          -0.38501219594463   -0.60541833354191    1.82984482100932
O           1.46334011697405   -1.72273618070057    0.74515784224210
H           0.70099162379149   -1.71605925392186    0.13856208649615
H          -1.48985187034613    0.37583238288819    1.47646111231441
O          -2.18912057465947    1.03606180136486    1.16975328094188
H          -2.71150980167128    1.23058969438762    1.94894823613659
O          -0.50127577975224   -1.80842563385515   -1.10722204649318
H          -0.61149870862249   -2.74598239790383   -1.27365413515172
O           2.94887585358467    0.08990396807900   -0.86915826584116
H           3.18666393681108   -0.83690553985147   -0.79055788930930
H           2.60791466861500    0.33387229896453    0.01825589760982
O           0.64994119874166    0.46272531294104   -2.17224898908441
H           1.58680255828860    0.35706658154836   -1.88228760698965
H           0.23702183399346   -0.39574708046009   -1.98731239377921
O          -2.90137408024112   -0.72142996942192   -0.76079949270094
H          -1.40011576343560   -1.45870692465524   -0.88916488211149
H          -2.76512436552226   -0.10725502627829   -0.01110297959349
H          -3.15440468828819   -0.18630935249852   -1.51517228037630
N           0.05298958875885    1.94975427829812   -0.09594426862761
H           0.31211216768781    2.92626554749593   -0.17820463806841
H          -0.90514758018996    1.83838855439002    0.26892037227122
H           0.18679638295952    1.43668981398372   -1.02403938148292
H           0.72374445265599    1.43635125427396    0.59733018407727
