    26
        -50.45272336  Gyration_radius:  2.64405085855 Dipole_moment: 5.639
 S          -0.34568906758704    0.07949909127485   -2.56739144758107
O          -0.98759108898488    1.35840127878282   -2.37054825326774
O          -0.52675085928109   -0.54396240881004   -3.83811270560838
O           1.25785941631674    0.36227476586775   -2.47971720150379
O          -0.58516672287429   -0.80063245548424   -1.40965590366370
H          -1.67180844656016   -0.05025790570939   -0.42448962039149
H           1.45567433765567    0.19056008861908   -3.39350030382752
O          -2.21547767251728    0.43707823432533    0.24007664898285
H          -2.87791045862315    0.90249098344918   -0.27356757742816
O           0.50626298554434   -2.85885697864099    2.37699839943765
H           0.12342322599701   -3.72724082135965    2.50615639782976
O           2.35484062529357    1.37431839687129   -0.08426858669623
H           2.38511402994961    1.18238032073900   -1.02957869628003
H           1.54195297276024    1.92181985879565    0.01876289727748
O          -0.12780846362932    2.31416283706168   -0.07531402529386
H          -0.82169739127252    1.87262103966403    0.43013514392782
H          -0.37649721152490    2.11896074291963   -1.00550012091679
O          -1.04939410880664   -0.38007861066451    2.51516422170115
H          -1.65227942632029   -0.17594670403369    1.77385627539877
H          -0.16701907454705   -2.21575389037424    2.63279255315138
H          -1.14085055802582    0.33617158916589    3.14587486500024
N           1.00599960439678   -0.74872136530746    0.66964317586332
H           0.36341609230551   -0.47436179299284    1.43246569455494
H           0.42067208602475   -0.86126195702920   -0.20644764563059
H           1.70759361387042    0.02582326486051    0.47694543909396
H           1.42313157046457   -1.63948761201059    0.93922039583555
