    26
        -50.45443560  Gyration_radius:  2.66553851301 Dipole_moment: 6.681
 S          -1.17642584528735   -1.71996287887886   -1.76959131772840
O           0.21135805293428   -2.15342164883083   -1.94131394891267
O          -2.01643167091466   -1.89739527293151   -2.90535028277895
O          -1.76586794779119   -2.71921453727449   -0.62837797088244
O          -1.22460648565583   -0.41423963417009   -1.11847860129233
H          -1.17393490433606   -0.60150210143852    0.46721566240860
H          -2.28456015687965   -3.30900439163721   -1.16526715461627
O          -0.97345418406969   -0.87711314120539    1.40243123092670
H          -1.64421235387510   -1.52764648631835    1.61767220068176
O           2.17486598585880    1.01108267369428    0.08362980204341
H           2.97981529399780    1.33945202330684   -0.31758572440073
O          -0.89449232421060    3.30148637202102    0.71584881694121
H          -0.60686782378930    4.18162645553246    0.96027084822574
H          -0.52034777193751    2.68857379735109    1.38643281971353
O           0.36790885677877    1.45854783491651    2.23103474203225
H          -0.19378933812979    0.68114917552513    2.10160401024303
H           1.12324692140696    1.34483208850866    1.63673489993153
O           0.20245172417357    1.85701249859956   -1.30177125462192
H           1.41270646340113    1.36851676746490   -0.49426824839893
H          -0.37218838377893    1.07340668651578   -1.38280216074073
H          -0.28301863288940    2.46573970431938   -0.70686460512691
N           1.35708273337130   -1.52468595008595    0.24280743401677
H           2.01700373647551   -2.21780678920834    0.57746353130928
H           1.80562208043111   -0.57863572441763    0.14639619750498
H           0.93785428132448   -1.81211261945913   -0.72299417527497
H           0.54028167338224   -1.41868489192630    0.88512326878749
