    26
        -50.46125481  Gyration_radius:  2.40976917961 Dipole_moment: 3.113
 S           0.97672474234977    0.44607925184752   -0.25782182172646
O           0.36732018438274   -0.62943998503838   -1.04032009291411
O           1.60797133301359   -0.09782481609791    0.94830404300729
O           2.07055295847376    1.10726211674147   -1.12576537038242
O           0.00276079274776    1.47211259401254    0.07988453001115
O          -1.62620104845878    0.31136667625358   -2.61827087015410
H          -1.24461114529732    1.01437029332004   -3.14549451903105
H          -0.88487918743247   -0.09495651215310   -2.13128886702809
O          -1.20633696482464    1.67575576701053    2.44545819224119
H          -0.66569729847706    1.85941048674424    1.64937941074795
H          -2.11845616697885    1.66069958230833    2.13633475698834
O          -2.59480039707881    0.78557303159148   -0.10064984742160
H          -2.74623474602161    0.62634918026403   -1.04539323866232
H          -1.69705415505523    1.17233302602837   -0.08701910566535
O          -1.52835601970035   -1.51577706701689    0.59374537344358
H          -2.14655675593512   -0.76357318427227    0.39397698116206
H          -0.82931111836107   -1.42108847266028   -0.08923407058088
O          -0.23157869338231   -0.67842432185880    2.53471492114870
H          -0.65109189244955    0.24530474741680    2.68822237628919
H          -0.85627459092753   -1.14946895528658    1.78286897580865
H           0.63011158081802   -0.47357703224231    1.98942932452650
N           3.18434956356051   -1.22089428792310   -1.16148152223279
H           3.97942324427660   -1.72823170474825   -1.52911617396161
H           3.18996188946727   -1.27542188693047   -0.14922681465941
H           2.68941333535569    0.33496589177667   -1.28287501456010
H           2.32885053560446   -1.66290439928617   -1.47836153645370
