    26
        -50.44576771  Gyration_radius:  2.49266935089 Dipole_moment: 4.977
 S          -1.80689435614104    0.10500547255200   -1.63865322392099
O          -2.40561019532255    0.97072366846333   -0.64976962834711
O          -2.42023659613160    0.04570277841838   -2.91060883923983
O          -0.30940413827508    0.50032076204416   -1.76379113702471
O          -1.73789744854645   -1.33105792798100   -1.04350706213862
H          -0.86811847133183   -1.50557980677192   -0.57183982030623
H          -0.11937126191232    1.13110139664588   -0.98348672934178
O           0.49259667990455   -1.87430920777507    0.12173557122183
H           0.64409277117358   -2.81803132894668    0.05298094169313
O          -0.09197148652968    1.99624759533981    0.26777778013501
H          -1.03359704513406    2.20775355724145    0.23123795459388
O          -2.53890218415776   -0.29878427172177    1.69644421856351
H          -2.61583978468765    0.22623652894274    0.87532749224600
H          -2.90575315116816   -1.15982461484394    1.48951494243002
O           2.61529216123531    1.32250098475087    1.00318258903174
H           2.04878939727183    2.03039529927830    0.67987196110773
H           2.12480794816683    0.90696666356068    1.72048219680588
O           0.10393914183310    0.05804019774224    2.03413744231027
H           0.00095706296522    1.32559453791984    1.00158125710631
H          -0.85712265019574   -0.05252177984795    2.18227045340807
H           0.35455918141515   -0.71251764509016    1.49905135858502
N           2.35817312290643   -0.60126215478739   -1.11406242060821
H           3.18168311523499   -1.04897695780414   -1.49356146810948
H           2.65494286518624    0.09470801706707   -0.42567967866774
H           1.87655360266896   -0.11405596705795   -1.86053991137041
H           1.25433173958700   -1.40437580733470   -0.40009625013672
