    26
        -50.46058936  Gyration_radius:  2.64033509883 Dipole_moment: 5.064
 S          -0.67076526764245   -2.19081924303791    1.42203946403083
O           0.32189822419050   -1.16499772719790    1.78269299506003
O          -1.80614096801367   -1.59080940697974    0.75624661272396
O          -0.06769052267659   -3.30285929691277    0.73750051689266
O          -1.22108138651935   -2.76021512418302    2.80758557030920
H          -0.66185677847673   -3.51591325322208    2.96129843973057
H           0.98831836775979   -2.17583575871451   -0.94815937878808
O           0.84802725854592    2.42152281642446   -2.46177151723103
H           1.17581353686567    2.36891116479049   -3.36014178811414
O           1.01170419160295   -1.24145345856984   -0.72019020918873
H           0.74201010473486   -1.24600109550511    0.22906272007146
O          -2.16432224253281    0.90858454246336    0.26987410402716
H          -3.09642144040420    1.09064259251293    0.39527911419701
H          -2.04718972964009   -0.05797984853161    0.48610825681087
O           0.14016693392306    1.44492346276365    1.59001108578594
H          -0.73197587664512    1.50051910232003    1.15577360626807
H           0.20713386553559    0.49849444649770    1.85660151696625
O          -0.79918085157257    0.43468211476780   -2.05754324155783
H          -1.41045190551647    0.66762322224585   -1.33642891213104
H           0.11848138289813    1.74512077084122   -2.39353128374703
H          -0.25053393003529   -0.28130677860833   -1.69678810635307
N           1.90511313899436    1.29828763751182   -0.30110663283149
H           1.60936437561557    1.86238264663478   -1.13970654334366
H           1.18532731527696    1.45643354472948    0.50627462357455
H           1.83177677199223    0.29603673823802   -0.54487211027998
H           2.84247543174163    1.53402618868024    0.00389107704801
