    26
        -50.44890316  Gyration_radius:  2.42494916346 Dipole_moment: 8.964
 S          -1.99859151359120    0.32108993272537   -0.89134387825864
O          -1.20937470770907    0.56350879066776    0.32042071241324
O          -3.19552833395391    1.08332644744341   -0.98319590464408
O          -0.99301990884071    0.79514415617467   -2.08610286585555
O          -2.11830148869166   -1.11144054011321   -1.13304926610809
H          -1.12834018710637   -1.84324758072739   -0.23909922187915
H          -0.59761003647390    1.62917799357276   -1.72851103048530
O          -0.34599725939947   -2.34344734492359    0.16596062463702
H          -0.61409755460372   -3.26272781411369    0.20576364705430
O           2.32025398642154    0.69087155807129    0.06677080942150
H           3.24655376779997    0.75870846783614    0.30112256808473
O          -0.80179583667553    0.83914654828071    2.92318120088003
H          -1.55822979105237    0.52262844576967    3.41863656989236
H          -1.07245608349424    0.83589487699003    1.98355467266948
O           0.24197156330910    2.53975185496086   -0.60128633624189
H           1.12076686795064    2.17748546865418   -0.42115557975134
H          -0.34173261577436    2.07067883890551    0.02447763739915
O           1.17279317599018   -0.70248419792993    1.90769085180251
H           0.57667794177628   -0.12050759365514    2.42167290627011
H           0.57891328787498   -1.29400934011314    1.42004173271443
H           1.86954450270258    0.22878940084589    0.84595909658603
N           0.98993099200170   -0.89014567372110   -1.60549586775434
H           0.17292933083547   -0.29015243442367   -1.90896535765859
H           1.64054727441662   -0.27093764894049   -1.05206141964183
H           0.59436932408996   -1.61423089215793   -0.94991717117007
H           1.44982332219198   -1.31287172007525   -2.40506913037381
