    26
        -50.46125496  Gyration_radius:  2.40969392356 Dipole_moment: 3.110
 S           0.75994568074184   -0.74092603533676    0.30313703658474
O           0.02583860023198   -0.23902566694045    1.45395702699580
O          -0.12290679039428   -0.93948886337609   -0.84632461150583
O           1.86161471203830    0.15892558214970   -0.05166073403668
O           1.35524680917434   -2.11301145094541    0.69054452303880
O          -2.38135975782217    0.86647564467757    0.96971968645757
H          -1.57196167140255    0.41053784481851    1.27409868305639
H          -2.93135276294871    0.13574376899398    0.64664656642903
O          -2.61345884813118   -1.66217132266446   -0.05651919918252
H          -2.50714347678713   -2.43614302768749    0.49791538328426
H          -1.73071256990678   -1.46926585766407   -0.42438337383433
O          -0.02124514384858    2.31572694654768    2.20889518322936
H           0.11283152198436    1.34544133873467    2.18983951772206
H          -0.97624434296127    2.44106076130882    2.21340773007463
O          -1.10058030861917    1.49717317631875   -1.23861767325856
H          -0.77357340667145    0.57643073872948   -1.33618614200551
H          -1.74945907038004    1.43107148451586   -0.48855908646278
O           0.91081519435073    2.46618169782835   -0.15948317012639
H           0.59472708720667    2.58878713267797    0.80890116791829
H           1.44361208584339    1.57341171272007   -0.13688628049015
H           0.02248370752906    2.17395654022347   -0.71054199870773
N           2.36015375066946   -2.13673149670640   -1.68677087046324
H           1.45730545282570   -1.96142981567781   -2.11297446838904
H           1.84812585782681   -2.35627082927477   -0.14735098593672
H           2.92585788955371   -2.69111578688838   -2.31705132930588
H           2.80143980109494   -1.23534420741756   -1.54375254071418
