    26
        -50.44603962  Gyration_radius:  2.46184180448 Dipole_moment: 6.861
 S          -1.97986554194597    1.37092839380695    0.53608594835657
O          -1.84695205483104    0.66165719914869   -0.70601464846853
O          -2.63430506770320    2.62503034304507    0.50189878891228
O          -2.58631220196709    0.43771119240237    1.59205018997093
O          -0.51540706777379    1.63298471284644    1.07473989064456
H          -0.10065980095567    0.83157562265785    1.52446447073366
H          -2.20114514770715   -0.47795139045782    1.38216158356280
O           0.76016398653344   -0.31725122150329    2.16586955065696
H           1.28256497445245    0.04044760478186    2.88524524823309
O          -0.02539237054898   -2.09869839001951   -1.24392831373618
H          -0.46356875390924   -2.79159335656035   -1.73970659609374
O          -1.34582881847578   -1.72647825409453    1.10413741305767
H          -0.58999355306988   -1.55360988992214    1.68182220909927
H          -0.96804696531859   -1.80798658816559    0.20017956892890
O           1.26176451976971    1.94283358185799   -1.02291522837571
H           1.24156449928412    2.84081225487774   -1.35865838393258
H           0.60233573803335    1.90363567661296   -0.30780772998171
O          -0.11479305408644    0.13062813400836   -2.64911305873280
H          -0.06279755268856   -1.28773223829942   -1.81824308420458
H          -0.93164977625689    0.37692604125700   -2.18161753371987
H           0.55146849411989    0.73057685200654   -2.27876064448600
N           2.22329367993086   -0.71126459818908    0.07074767756031
H           1.66263293616327   -1.37904318274243   -0.45188325567450
H           2.20161831752682    0.16808170050500   -0.43573178843907
H           1.40155133898897   -0.49730271302336    1.38215426056743
H           3.17775922242523   -1.04491747683577    0.09282344557298
