    26
        -50.45175550  Gyration_radius:  2.78353607181 Dipole_moment: 4.605
 S          -1.67458989799345    2.18215213936207   -0.75055192090792
O          -2.27360417199588    1.48277734863851    0.38330985477941
O          -0.28216634570722    2.51255271000237   -0.52562018469623
O          -1.89113554184338    1.47045524432948   -1.99992424215516
O          -2.44835749096966    3.56634749903894   -0.87499299481499
H          -3.35228884974433    3.30575081034729   -1.02901096584436
H          -0.63084769690013    0.48757158499122   -2.04234725998269
O          -0.25550785169271   -2.87428529043032    1.17819654970154
H          -0.97724289191191   -3.49848617031570    1.25578414961720
O           0.22611119900681    0.01322991575844   -1.86735042117003
H           0.89435762801659    0.69472830786431   -1.97397334567251
O           2.36588500241796   -1.65185562864494    0.98728597003749
H           1.65678511716535   -2.15159069803182    1.40962581026601
H           3.09129106365498   -1.61091240183389    1.61120054641751
O           1.19252127840697    1.93987048171131    1.59407689829477
H           2.09118413108754    2.17508197853673    1.35889993961399
H           0.62327019977836    2.31339354210221    0.88305487755904
O           0.85424976864714   -2.62391266045273   -1.22248510194521
H           1.69615567506567   -2.35731260922359   -0.83183526967431
H           0.06100614716280   -2.92079913824588    0.24047813004471
H           0.52773208597788   -1.83670647389345   -1.68436320326131
N          -0.29838866834238   -0.14857440499503    0.80396754580530
H           0.01282670744009   -0.19223067741823   -0.19209215102378
H          -0.41453440451738   -1.10507764070869    1.17313395296536
H           0.40071477946009    0.41260725240784    1.32855795462040
H          -1.19542697232772    0.41522497853315    0.78697490149322
