    26
        -50.45745698  Gyration_radius:  2.3928979537 Dipole_moment: 7.914
 S          -1.75558364759003   -0.68974095208713   -0.33189187013060
O          -0.52700294846901   -0.78879328004407    0.46932856143289
O          -2.91157410530492   -0.39630151476933    0.45720880791423
O          -1.46453558414724    0.59407315038855   -1.27721839626194
O          -1.84834779479575   -1.78381819343654   -1.27363423459850
H          -0.40987175978241   -2.44433252381851   -1.36073993341641
H          -1.26101119505646    1.36164259596749   -0.66278710096633
O           0.52790011851753   -2.70002881145277   -1.59286446303082
H           0.45303721774607   -3.28867175127745   -2.34660244395558
O           2.08413845546288    1.27423399028969    0.25792028110382
H           2.98837264171443    1.56610600372780    0.38101329025587
O          -1.33300007019233    0.80524630944928    2.40456649462243
H          -2.29216171493169    0.78286953213042    2.45692530204655
H          -1.12654638946485    0.11237976410986    1.73905223852693
O          -0.56508025493185    2.37071740802444    0.37014636076883
H           0.38433328315245    2.18537959880233    0.33134807788307
H          -0.87281192997404    1.99156340266781    1.22321688741995
O           1.41368353590819   -0.30459960185037    2.21134075426178
H           0.83440393647502    0.15088839847360    2.83209520991901
H           0.80269165008970   -0.79030698735961    1.62685149171036
H           1.86975819285646    0.68822566752888    1.04363850569929
N           1.02741680340871   -0.13421717994086   -1.80985424425778
H           1.53542150096632    0.32442305716109   -1.01797064082750
H           1.00244504734959   -1.19423675342142   -1.69547298250272
H           0.02015080623847    0.17019140106370   -1.73111649699639
H           1.42377421477105    0.13710724965762   -2.70449944661982
