    26
        -50.47114462  Gyration_radius:  2.41074412245 Dipole_moment: 3.640
 S           0.83191084995629    1.75986406542692   -0.48355674856025
O          -0.50648350747008    2.07598827455633   -0.01241386764521
O           1.67771967363851    1.17183082981868    0.54168248398453
O           0.81264047146540    0.97046104034563   -1.70319748906361
O           1.50848223932245    3.14376931391620   -0.85068116247761
H           0.88821785243640    3.51455080016221   -1.46910630570601
H           2.26550400916995   -0.62443070100995   -1.56362709944461
O          -1.12462632438778   -1.20901578327835    1.91815540510001
H          -1.40999927854033   -1.61201505259131    2.73892720815364
O           2.45092059833399   -0.98736710482301   -0.68906198397575
H           2.33206656587290   -0.20465502330923   -0.10462677482987
O          -2.47897862398693    0.24599140740319   -0.15517426136848
H          -1.87785702248879    1.01475643908244   -0.12669772244293
H          -2.25598099289163   -0.28683733996954    0.61987040696366
O          -1.06284554034695   -0.87618623201349   -2.08195763119475
H          -0.39500159646568   -0.15919191162336   -2.12881028537326
H          -1.78959381702623   -0.49085037246289   -1.53662220388635
O          -0.12222762897892    1.12936490190480    2.44886305497002
H          -0.60148152885218    1.69420587458405    1.82132430811300
H          -0.72234808513178   -0.32546553204968    2.17107223725984
H           0.76157922550044    1.09449150891854    2.03848763412101
N           0.16538556164286   -2.23830350423781   -0.26226089534476
H           0.17282565929401   -3.24903957143445   -0.33872667020722
H          -0.39972509804037   -1.77795499101434   -1.07515937329545
H          -0.26768240862049   -1.93636626407476    0.63201153750845
H           1.14757875664197   -1.83759507222256   -0.34871380136851
