    26
        -50.45078017  Gyration_radius:  2.44765740619 Dipole_moment: 3.729
 S          -0.70905786434169   -0.86914329926045    1.23313860875409
O          -2.09359926735803   -0.53915881156427    1.00273595123172
O          -0.43123170066185   -1.74342784028953    2.32303788070882
O          -0.12163720040032   -1.43802813407850   -0.06664078037387
O           0.08111044747297    0.44013382496046    1.46878897913795
H           0.42909230778454    0.83697489708224    0.60691561879003
H          -0.81303370980634   -1.28685033323514   -0.83510466871883
O           1.15869182443294    1.34436433281777   -0.66869533226050
H           1.71897842468502    2.08038439206462   -0.41527896279413
O          -1.90695721049819   -0.93397724862975   -1.73328224375204
H          -2.60621001432518   -0.88761064989636   -1.07047261908457
O           2.23563458631230   -1.45025927132455    2.02988634260897
H           1.30922548381227   -1.72275133519127    2.14603616598672
H           2.39463941006880   -0.79773530019327    2.71484156383402
O          -2.49482044634409    2.03096369934830    0.40178814304285
H          -3.38586492945555    2.27909198387690    0.65218191564183
H          -2.36272944124611    1.11623287505918    0.72085915241803
O          -1.28666980417032    1.58424106948547   -1.98167438788243
H          -0.35779498232914    1.58858609035980   -1.70802784904621
H          -1.70392141293917    0.01510055213132   -1.98400447890287
H          -1.77901738765505    1.92817760691943   -1.21208607640494
N           2.63843793188753   -0.77117207264119   -0.75026671961879
H           2.61024975833448   -1.05149658768004    0.23309857616183
H           3.59907377320215   -0.81217060671643   -1.06714624548057
H           2.10414572126518   -1.46599227005417   -1.25740899885886
H           1.77326570227109    0.52552244665617   -0.78321954514938
