    26
        -50.46060902  Gyration_radius:  2.5870208204 Dipole_moment: 5.772
 S           0.56948748222693    0.18472535934268    0.36038733532234
O           0.55571523001635    0.48328143344618    1.77532762545018
O           0.77286991340105   -1.34593407708711    0.16896048265983
O          -0.66801866794943    0.54816573998397   -0.32031479231015
O           1.70384580466343    0.82005776868646   -0.33962512737429
O          -2.15821406109410   -2.04789423306882    2.76843349168300
H          -2.25739376646138   -1.11554020891478    2.46085551231241
H          -2.58925352682478   -2.09479076245789    3.62306512617901
O           1.61640093613692   -0.86647282735658   -2.44329809118716
H           1.80882112599099   -0.31278927820563   -1.66337977946936
H           1.45106508359576   -1.74123552048746   -2.08305620756063
O          -2.09471565460648    0.50229282343596    1.98202475643213
H          -1.15022860819847    0.64636489905731    2.17345241646234
H          -2.11193530009463    0.53662191496184    1.01647523742127
O          -0.59068470279191    0.54972179921594   -2.93901441026809
H           0.13193588851942   -0.10902406846231   -3.03662273658330
H          -0.87373703760458    0.44096264609042   -2.00165312788021
H           0.21804058663708    1.75324934058134   -2.63756977787454
O           0.51567184963117   -2.06962263902778    2.58706624679745
H           0.70080332412189   -1.76877551800290    1.08598770833187
H           0.65083687810407   -1.12876382619918    2.77944785607865
H          -0.45204736751446   -2.22537531884641    2.68596916321398
N           0.90410422455730    2.46702422881991   -2.14296561007298
H           1.65376619486212    2.76545921996427   -2.75866088682402
H           1.29738290809161    1.86604309887645   -1.33021396869630
H           0.39548127259674    3.26224800565206   -1.77107843224478
