    26
        -50.46512582  Gyration_radius:  2.55179103381 Dipole_moment: 2.225
 S          -1.13235416690103   -1.78872740386982    0.07464782816801
O          -0.42392344112591   -2.88339611186513   -0.54680097442560
O          -0.26605694326127   -1.01356324512876    0.97158683862530
O          -1.81724748869636   -0.91819801853769   -0.85634560840165
O          -2.24401041292057   -2.43898160169430    0.99794925874533
H          -1.84507563241337   -3.26095517708100    1.26612540281949
H          -1.81959277013683    0.72110313737061   -0.95619026938743
O           1.43971414683578    0.82138704801027    2.38968778175292
H           1.14143723761869   -0.07202130307601    2.18226320632783
O          -1.63990575153384    1.69045011141960   -1.01476980340837
H          -2.36307368509127    2.07094530672959   -1.51410064167971
O           2.99518152462913    1.56502127050914    0.37327919806405
H           2.50660262531564    1.39946786970273    1.21791965557737
H           3.85538196796873    1.15604274119367    0.47407122965462
O           0.51158706145711   -1.47080342382056   -2.56441491134846
H          -0.29650885618535   -1.33671476187425   -3.06501027727645
H           0.26653572384793   -2.11848268465227   -1.86623057259941
O          -1.15510937121138    1.46503024845872    1.76730309532527
H           0.61884883289634    1.34600561094717    2.37660442233044
H          -1.40297294221998    1.84945245361567    0.91651608535319
H          -1.09188892602042    0.51077661946835    1.60581454609776
N           0.85194760172615    0.55937433623088   -0.86155455021851
H           0.48398271405519   -0.00820677971763   -0.05818921174670
H           1.76926176640147    0.98158546708696   -0.58469305024683
H           0.90759888319062   -0.11118091981194   -1.66417074763070
H           0.14964027173985    1.28458923045022   -1.06129792047765
