    26
        -50.47250308  Gyration_radius:  2.48716469079 Dipole_moment: 2.880
 S           1.16636964158236   -1.34596166159426   -1.40396294519884
O           0.56542324816046   -0.51406928234660   -2.43944223564918
O           1.58713617234055   -0.56471823827044   -0.25665314020546
O           0.32521283679473   -2.47550085866948   -1.05702476789748
O           2.48774676816338   -1.95602284380101   -2.02954747807062
H           2.12518178715555   -2.56032390857498   -2.66813633164573
H          -0.96060470962978   -2.04763172138824   -0.21862820512105
O          -1.72152773465068   -1.77204992399927    0.35700218848860
H          -2.39897547213006   -2.43881017291102    0.23552965063303
O          -0.31165019394633    1.41961747733503    2.34005436674572
H          -0.34464679714614    1.66957848595556    3.26360534350016
O          -2.14719035132755    0.92793036385287    0.34647055592859
H          -2.09990372402037   -0.04674581897685    0.33301394633657
H          -1.64722126188430    1.19829277870991    1.13774073921539
O           1.51075600717375    2.05886312752357    0.37355253372869
H           0.95761990710652    1.99503449615571    1.17359537791623
H           1.80733301231628    1.14575773263527    0.20289408574922
O           0.36657244936694   -1.08001444856114    2.06333477264597
H          -0.02671565921798    0.46006054154773    2.31640553605136
H           0.94775830944751   -0.99526705509146    1.28090474439105
H          -0.43775928685102   -1.49760992000202    1.72177648333285
N          -0.36182741636239    1.70644736448572   -1.43634550097334
H           0.41725301934363    2.02864358544250   -0.78611805565168
H          -0.00748049552936    0.82976742120113   -1.91784129273896
H          -1.18367005723559    1.43815301074712   -0.81881314141137
H          -0.61519001908647    2.41657948852070   -2.11336722015756
