    26
        -50.45220452  Gyration_radius:  2.46102315965 Dipole_moment: 9.112
 S           0.46665356835796    1.30883421496013   -1.73129708988513
O           1.78215506246148    0.88522827751424   -1.21898031479408
O           0.50363802531409    2.04176256007068   -2.94748382885873
O          -0.30678377233701   -0.07384190125456   -1.97823707968284
O          -0.30552657774751    1.94448265656471   -0.65587926185566
H           0.08585438572658    2.16299004766529    0.87461540969315
H           0.38045123578847   -0.76817107060566   -1.92239762099466
O          -0.15680062891313   -2.21457704297072    0.95062145811499
H          -0.47687156035775   -2.83006809423089    1.61069363269586
O           0.35629346549140    2.17078958655432    1.83398375366162
H           0.81251130565337    3.00280292279536    1.96567331628554
O          -2.45047940401426    1.28480365698631    0.79975402976960
H          -1.81806827679944    1.61685624256686    0.13153077609860
H          -2.07718691412499    1.54246880071701    1.64607973899160
O           1.13260905558756   -2.25939360518242   -1.48263957035763
H           0.72500166407961   -2.42201901250445   -0.61378655265231
H           0.80512907600974   -2.93634094879550   -2.07755956503351
O          -2.16008096477239   -1.15240959926768   -0.24344580793810
H          -1.73009571138175   -0.81347922114504   -1.04534920067998
H          -0.98136296319713   -1.81443259001973    0.51629991445581
H          -2.44835802297314   -0.34106664089907    0.22966312986066
N           1.57901780602165   -0.08848233432111    1.09946195361042
H           1.16087301881537    0.71685347167958    1.61744355542748
H           2.48542416121441   -0.34458917734453    1.47451063717245
H           0.93855085518355   -0.90266730315283    1.11172576851323
H           1.69745212089553    0.28366611375640    0.05499878852813
