    26
        -50.45220448  Gyration_radius:  2.46111992762 Dipole_moment: 9.113
 S           2.19902588243038    0.18329078655229    0.24217617523053
O           1.89311082800688   -1.20046560781568    0.64722617702168
O           3.58297685476088    0.49428563844598    0.16607007089724
O           1.55649895292045    0.30021153854621   -1.22225306076477
O           1.40232269923655    1.12376353013305    1.04063113811965
H           0.31141820584874    0.82166130332441    2.16394259439829
H           1.35268965593959   -0.61881866073055   -1.48942772656286
O          -1.89282028968332   -0.82970392134450   -1.25005259927305
H          -2.82191226055984   -0.82171285315901   -1.48179629408409
O          -0.42727229023434    0.55453615320179    2.77765457253262
H          -0.02934012444867    0.49246343002475    3.64686419520546
O          -0.67538376272142    2.74069821700446    0.56724874812726
H          -1.17370518670671    2.49069909408260    1.34900574011379
H           0.20414815795046    2.32913882857034    0.68425059385237
O           0.46158548489293   -1.94663213991918   -2.14233607710850
H          -0.45056095383554   -1.67190834024168   -1.94229510556320
H           0.55961575307270   -1.92172515108677   -3.09584163001684
O          -0.88204121642771    1.46778453482744   -1.76722841054423
H          -1.54265980134710    0.09854917913750   -1.46071993691533
H          -0.96766847169360    2.06134253648156   -0.98907545752117
H           0.06296592069060    1.24564963690856   -1.78723257693343
N          -0.57662653268707   -1.49456664029075    1.06938994695984
H          -1.13333005069815   -1.26368784506179    0.22671628215643
H           0.51114316225781   -1.41484338040421    0.83732329930712
H          -0.73548545669348   -0.78677834156354    1.82133377195517
H          -0.78869518020230   -2.43323151558784    1.38842557963131
