    26
        -50.44592083  Gyration_radius:  2.58184656787 Dipole_moment: 6.938
 S           0.56265473765864   -1.42266199086759   -2.14118772635562
O          -0.23015807278035   -2.19565103363531   -1.20949186086382
O           1.33376811340885   -2.14856918746607   -3.07812940919123
O          -0.34318130077020   -0.42568686331840   -2.88774176154263
O           1.45283761346990   -0.45962444907959   -1.28944969948520
H           1.66007776403399   -0.96926189223056   -0.43704660254933
H          -0.84702894660331    0.15475593513154   -2.23449348915090
O          -1.54140158381593    1.16637325558403   -1.26146168282500
H          -2.02559804793021    1.80823466289080   -1.78338307430330
O          -0.21121377174712   -0.77032330298873    2.41768154690487
H          -0.53224657756171   -1.31182082157529    3.14027705969835
O           0.45660104631296    1.90459990586843    2.50384217066794
H          -0.16437922873249    2.28432628637777    3.12691584612752
H           0.30911719488992    0.94248818732780    2.51802674559685
O           1.59471995548285   -1.93801109065978    0.76599903023789
H           0.96882676752494   -2.51711662321812    0.30730947752508
H           1.07544618430554   -1.48319729621687    1.46359368611178
O          -1.91393339809937   -0.96011951862447    0.45894784481653
H          -2.00334914315698   -0.12633227742614   -0.02540766254330
H          -1.42141356629786   -1.54543019014049   -0.14972130846088
H          -0.91344150087292   -0.80809161033019    1.70525357747702
N           0.61336243355492    2.23889678867644   -0.35721155249483
H          -0.70828040054000    1.65156143330535   -0.87699041330285
H           0.92255039269855    3.15015500452669   -0.66914411452805
H           0.61806054024402    2.23272703207912    0.66339749301684
H           1.28760281529240    1.54777964596676   -0.67038413057556
