    26
        -50.45212426  Gyration_radius:  2.50370230322 Dipole_moment: 8.223
 S          -1.31584578024483    1.36066515262671   -1.18909131368767
O           0.15498054525428    1.31880668994742   -1.35528426463741
O          -2.00468018265012    1.92230075484831   -2.29921996018413
O          -1.70487502672235   -0.19611003945412   -1.06030701033442
O          -1.66509089463421    1.89815915328249    0.11869907501672
H          -1.15430227286086    1.31960465370431    1.42983681120873
H          -1.06547335045346   -0.67502451667330   -1.62641853378149
O          -0.75117451932250    0.91657552763899    2.26774561235235
H          -0.92725159991345    1.55085959723641    2.96329769234797
O           0.71115294529475   -2.47527797097908    0.53389894158998
H           0.91036183478539   -3.31059325918795    0.95755196191289
O           0.07298648079290   -1.87745673728441   -2.08905643196001
H           0.40151710420643   -2.18303164885352   -1.22427263242918
H          -0.37217260448773   -2.61974897984661   -2.50141607118151
O           2.61317251630860    2.30917505277415   -0.55363304855939
H           3.08460887927034    2.95375201793820   -1.08195345203933
H           1.76421805633384    2.15976958029713   -1.00330669245403
O          -1.57737349388879   -1.52475775540215    1.31939366477116
H          -1.39864364595775   -0.76675921913218    1.90032968049402
H          -1.88033620763408   -1.12084648841716    0.48663854331200
H          -0.19065278259928   -2.19180810946547    0.87121669021528
N           1.28215415058585    0.22337657758812    0.65155948802540
H           2.18448209425818    0.70007557161325    0.65644560923275
H           1.36425434593574   -0.80083237758044    0.60076380675120
H           0.69429606116904    0.50276509335268    1.46152704255785
H           0.76968735719752    0.60636169938432   -0.23494519856765
