    26
        -50.47014107  Gyration_radius:  2.40823925459 Dipole_moment: 4.177
 S          -0.26764426599769    0.45829862357282   -1.78701579285435
O           1.08010773190687   -0.10388365691527   -1.58436751449180
O          -1.09390168337543   -0.33480860619986   -2.64151729765497
O          -0.89606732909326    0.63181080116786   -0.45352668878461
O          -0.09022622883132    1.87740810885192   -2.38524883957001
H           0.75368490939980    2.22877761201325   -1.99487988931247
H          -1.70571947365955   -0.91470256557883   -0.57419817097163
O          -1.89790877086388   -1.87092192122771   -0.51250663616064
H          -2.09472572787263   -2.11320543419041   -1.42209963421528
O           0.69175792421350   -0.62860210736422    2.41456182060152
H          -0.28058933259688   -0.53588247118645    2.51085739264327
O          -1.92497362554544   -0.19105252492645    1.98172630340130
H          -2.44556203969420   -0.95450644015792    1.72016077568582
H          -1.70201708559483    0.26248587306618    1.15336052301392
O           2.16206291593583    2.29345538463949   -1.14977589633397
H           1.89117023445896    2.33580124582433   -0.21685647579291
H           2.23514290287193    1.34523522329721   -1.34360415973519
O           0.76281707504052    1.81650837110219    1.16587805425801
H           0.12651281682368    1.39363224217309    0.53299404635355
H           0.26301727306538    2.48667955957300    1.63594588996179
H           0.98283531851067    0.25455306667501    2.12333897862548
N           0.70500998187038   -1.97841309893004    0.16981465592380
H          -0.29944807595263   -2.19883707584840   -0.01832716607767
H           0.97536244495415   -1.25622029262676   -0.56905569970450
H           0.77683601280249   -1.50064766003901    1.13130789343337
H           1.29246606779393   -2.80296226689257    0.11303351756346
