    26
        -50.44592076  Gyration_radius:  2.5818056092 Dipole_moment: 6.939
 S          -2.13647462394596    1.07395723530020   -1.09824893412888
O          -1.24930051541367    2.10118730220513   -0.59658696968019
O          -3.49364841153977    1.43161080835824   -1.27061705373656
O          -1.58300664297461    0.51430392875422   -2.42197381743023
O          -1.98484188220118   -0.15955544983632   -0.14930501857234
H          -1.80087410255732    0.22933605255683    0.76930921066247
H          -0.63749733296156    0.18458819286539   -2.30060090394019
O           0.77682899491208   -0.46410959696456   -2.12356730740515
H           1.03595858780329   -0.86321356562645   -2.95566679405192
O           1.33084172658858    0.80072971383856    2.01785534272973
H           1.81937706863261    1.42790555089964    2.55301309134291
O          -1.35663853249759    1.14989641088816    1.92970724524490
H          -1.34963808007623    1.92759857147186    1.35299497620188
H          -0.41434515018898    0.94115601850641    2.10760883896732
O           1.74906259406302   -1.91974053484042    1.83275033881444
H           1.55639713542528   -0.97805435622596    1.98632763575877
H           2.69861394023938   -2.01996527819682    1.91236129448942
O           1.37979803790575    1.64246811649542   -0.44430176751369
H           1.42011658343175    1.11093823516510    1.07038155124632
H           1.43035003448403    0.91091229757649   -1.07679439635637
H           0.46734365767918    1.98152397453032   -0.53470352267463
N           0.05756554244773   -2.29953937621130   -0.47291640708014
H           0.65247584070351   -2.29190181253417    0.35635143673231
H           0.54229527268476   -1.23851276700250   -1.47341817889053
H          -0.06108292256940   -3.25984505908504   -0.76791481519061
H          -0.84967682012405   -1.93367462291747   -0.20204507559266
