    26
        -50.46261489  Gyration_radius:  2.49088083331 Dipole_moment: 6.682
 S          -1.31436194320561    1.69021879734177   -0.40170995117044
O          -1.62325826526718    1.03608880034818    0.87016338263839
O          -0.75562828964801    2.99593666070510   -0.28462078364478
O          -0.44829104181933    0.79361904972543   -1.20110316170324
O          -2.66785009045156    1.76333317664616   -1.20408448338569
H          -2.93870392153641    0.83593622299528   -1.25104473026040
H           0.96645948768205    1.34777199951829   -0.60477490293013
O           0.50002173531192   -1.96195291391546    1.94848443801599
H           1.33115295231772   -2.31344239875354    2.27161801343175
O           1.81407282967983    1.55991196083651   -0.14908037731456
H           1.80580368050999    2.51729205916404   -0.07299597135380
O          -2.74785166163596   -0.90445586394805   -0.42953410396588
H          -2.31298720571678   -0.29246744422587    0.20630253186272
H          -3.51677934830241   -1.25207557639614    0.02676783453846
O           2.76727843510194   -0.77009675647827   -1.25997618690020
H           2.98214519975176   -0.50960374932859   -2.15744209908519
H           2.61387656202457    0.06059410502591   -0.77357930590908
O           0.64188628508926    0.62798022605607    2.20395913672710
H          -0.25120281410448    0.86889801120013    1.88663323370086
H           0.51274600520150   -0.98727327232778    2.16866144612113
H           1.24588449344987    0.96894789201550    1.52376302786277
N           0.27294321880836   -1.64312985656460   -0.67040297169430
H          -0.23985516577678   -2.35840624184835   -1.17368837856863
H           1.25880571299031   -1.53974858413860   -0.99420756778228
H          -0.17793926475991   -0.69426723033770   -0.84944838706024
H           0.28163239434738   -1.83960907326853    0.37134033786750
