    26
        -50.46956827  Gyration_radius:  2.48816817162 Dipole_moment: 4.358
 S          -1.68642717186765   -0.32490123592071   -0.69473629504364
O          -1.33765092618086   -1.58434607709247   -0.03606446225963
O          -2.47964300012195    0.55648912224370    0.10939132607640
O          -0.45108100425806    0.32805151203685   -1.17294965212168
O          -2.50113059591865   -0.68543570633869   -1.98189862307257
H          -1.92074087381810   -1.32663694169059   -2.42756929105461
H          -0.11029269222258    1.80122329304887   -0.53973796266156
O           0.35700740252164   -1.32712310270776    2.00354722259787
H          -0.36036764373515   -1.65233253160895    1.42538399094633
O           0.17355336697787    2.62009842950898   -0.06459480488747
H          -0.39770105501662    3.32028460067193   -0.38296743846304
O           2.68429020375227    1.87667464231460    0.62827423624053
H           1.87548872932225    2.31713038500542    0.30418185234483
H           2.70817699838192    2.02813243857463    1.57548500445267
O          -0.68419482235301   -2.64384452712450   -2.30832282734636
H          -1.05338265709091   -3.52298513489819   -2.41642674247147
H          -0.81184540908768   -2.40388899772364   -1.36385049865909
O          -0.74205042642896    1.10446307344817    2.09748438032240
H          -0.31118522843300    1.79993181897222    1.57949633955651
H          -1.53376985950107    0.88552906729918    1.57352435222215
H           0.02380934335946   -0.44994159212800    2.29657195745065
N           1.74444188346705   -0.55818337037935   -0.05240734029750
H           0.90685181355028   -0.26795810839962   -0.63152221122581
H           1.31688411514527   -0.95994680729344    0.85451967406645
H           2.30719449699533   -1.23915792951719   -0.54912415628228
H           2.28376502255725    0.30867368969600    0.17431196957044
