    26
        -50.45259283  Gyration_radius:  2.49247817043 Dipole_moment: 9.444
 S           1.98145312486106   -1.32963418755572   -0.46404804377589
O           0.77858673055985   -2.16069016303800   -0.39660235820081
O           3.05269982358316   -1.87265284830742   -1.22441417695420
O           1.47403149677237    0.02638324213286   -1.22036312486586
O           2.34447734824221   -0.80214821445705    0.85055834710787
H           1.35828858721906   -0.40399868449331    1.92338377491424
H           0.78833920997148   -0.31540924049940   -1.85685468925731
O          -2.41306650978580   -0.08865012021721   -0.70147626745466
H          -3.32834858591062   -0.37142846359528   -0.69188304245979
O           0.69898511599102    0.03976128792569    2.55780311183352
H           1.10353167842388   -0.00230156469387    3.42488986696870
O          -0.47895421501750   -1.11132771714183   -2.44510756500027
H          -1.26369305521488   -0.75456816030847   -1.99529559100723
H          -0.16229578998580   -1.83704673942547   -1.87294351586983
O          -1.63609462972955    2.42916746969186   -0.46679646420471
H          -1.61057800055303    2.76533895252713   -1.36450073666441
H          -2.01317836505168    1.51797008804555   -0.52979322276066
O          -1.18501319313500   -1.40483965968979    1.13753220052002
H          -1.96366817453013   -0.59115257180645    0.04893347121443
H          -0.45769997886126   -1.81355593585647    0.60553105645929
H          -0.73010337893453   -0.90673061244375    1.83125039631316
N           0.73419246345043    1.82131682727977    0.57871658221855
H           0.63928998498219    1.29309586737085    1.48110134135782
H          -0.20750055583029    2.15250121607255    0.23115427777552
H           1.38440065706383    2.59300956897647    0.68617077729614
H           1.11191820141101    1.12759035351975   -0.12694641550553
