    26
        -50.46234605  Gyration_radius:  2.379787007 Dipole_moment: 7.200
 S          -0.22051318749740   -0.99125714766485    0.01251243746646
O          -1.64493630749003   -0.92614095676108    0.19866980800908
O           0.17720097197781   -1.69284112339080   -1.21252062679046
O           0.33367878541861    0.46194201695230   -0.23578958783199
O           0.49464209174987   -1.48586034115823    1.18394633658202
O          -1.13741388512669   -0.20657040696138    2.88352310497501
H          -1.99224779187975   -0.54376444560492    2.60140506739620
H          -0.48587700319441   -0.76292775514305    2.41693144591700
O           2.85296800962343   -0.44359356858723    0.95003290722207
H           2.01319627508806   -0.93389787203969    1.15336013176434
H           2.72879268922072    0.43420806819570    1.31931830999335
O          -2.88404489209316    1.42738000139293   -0.21344394916616
H          -2.66575450801158    0.49397340387246   -0.03550222113179
H          -2.63805272650539    1.55212884066527   -1.13959220103082
O          -1.31687790791098    0.56191004529097   -2.44738140185561
H          -1.55530054369337   -0.36684307377263   -2.49499368032999
H          -0.65691049714796    0.61552445868676   -1.74398064626092
O          -0.82578487368657    1.95803588498971    1.36847839722103
H          -1.68336208284574    1.99773804663010    0.87601025626632
H          -0.97100366363290    1.31725779537780    2.10484410477763
H          -0.10429675634542    1.14497647597920    0.45366514077886
N           2.46939754896874   -0.71536616773400   -1.62851572794294
H           1.47576312319935   -1.20432701287325   -1.52788028015324
H           2.76134757070202   -0.54099927676276   -0.61240771436143
H           3.12914992012352   -1.31678353330699   -2.11196810709317
H           2.34623967098679    0.16609765372572   -2.11872129441891
