    26
        -50.45784374  Gyration_radius:  2.4603496698 Dipole_moment: 8.283
 S           0.40680294093814   -0.67639940543429   -2.02223045053424
O           1.04885014104002   -1.95273894073908   -1.68301506899498
O          -0.08250420564821   -0.54872256640989   -3.35127670642161
O          -0.58692902650600   -0.36593576362387   -0.98166937092481
O           1.53262844610314    0.43302043086655   -1.84528209693412
H           1.65543197838324    0.59132607419247   -0.88920720744949
H          -1.61101085577160   -0.06334629036984    0.20335699973807
O          -2.19554743941392    0.15281929939849    0.96976125782773
H          -3.08486479507990    0.17861287635798    0.61241215136285
O           1.73813174249128    0.92545046670238    0.79916316170290
H           2.45329871403935    1.54147452974696    0.96516703035087
O          -1.09553696460906   -1.90329653759714    2.29621292126741
H          -1.04536400767873   -1.64757211803975    3.21878907979728
H          -1.61182724679744   -1.19992112699124    1.84476769131907
O          -0.91691422872859    2.07809820895066   -1.94976611266475
H          -0.41807979895058    2.18173938390841   -2.76208195536361
H          -0.89093776460688    1.12131285613753   -1.76337997158322
O          -0.41630647504960    2.33130052708840    0.70742201411823
H          -0.56656331053359    2.44854699468458   -0.25333349690648
H          -1.12658277225067    1.73736307068621    0.99475890774524
H           0.88879536596434    1.47751366837015    0.80862696529003
N           1.19107706504680   -1.77869160672928    0.83909677555452
H           1.90330113259904   -2.40434299893102    1.20150837551544
H           1.08321266772554   -1.93234677383859   -0.25538279787638
H           0.28108624996950   -1.93405136629857    1.33116165506041
H           1.46635243689587   -0.79121291170137    0.96442022934069
