    26
        -50.45886735  Gyration_radius:  2.37770576165 Dipole_moment: 7.210
 S          -0.58672686466129    1.02435521317583   -1.62042661198761
O          -1.61442294156502    0.16072719961055   -2.15916974707957
O          -0.15376911950273    2.12971988688684   -2.41026325911129
O          -1.18884044953222    1.67928876158756   -0.28822588645870
O           0.55538636804948    0.21104571837410   -1.13164194328424
H           0.46798380571552   -1.36070190102420   -1.11957117312990
H          -1.52881240396870    0.96991237529090    0.28376611675656
O           0.51814106881786   -2.34680269607178   -0.96647842791882
H           0.71718471780981   -2.73598435436774   -1.81917712170965
O          -1.76567765869571   -0.22305759606016    1.54223344065574
H          -2.60821293686899   -0.11466717282225    1.98471811252087
O           1.45881404284885    2.37729792475983   -0.04232214106280
H           1.24174879410038    1.64397488369263   -0.65918584036181
H           0.91519714390297    3.10012061983857   -0.36764431380247
O           2.34179821294142   -1.20495776084329    0.70459397803205
H           2.67397069788496   -0.64541062724738   -0.00445258041414
H           1.72616182064710   -1.82240191959835    0.26161841869835
O          -2.11124441877250   -1.75612320633997   -0.45762477183805
H          -2.05986067413218   -1.07110388692210   -1.17218637249127
H          -1.29393419686739   -2.27091380748518   -0.56183226198547
H          -1.91708070404363   -0.91842269401857    0.81401638478352
N           0.83458761968994    0.64137161889741    1.86539929994512
H          -0.15766262088063    0.34674372912987    1.82466245347271
H           1.10585467468755    0.88011389996532    2.81357929329420
H           1.43543736081553   -0.15292428626369    1.48278547657693
H           0.99397867158438    1.45880009782421    1.20282950792643
