    26
        -50.45220448  Gyration_radius:  2.4610547967 Dipole_moment: 9.113
 S           0.84080731804695    0.32868509262214   -2.02698814496928
O           1.90471862571866   -0.37880511936479   -1.29224293490538
O           1.09315856364725    0.52086259782571   -3.41162326661574
O          -0.43652234288565   -0.62548838674596   -1.85651252676359
O           0.45753663794659    1.54543021543031   -1.29938216669452
H           0.99993380226156    2.10766081839972    0.09144331703307
H          -0.08419802154279   -1.46986581503936   -1.50920422151140
O           1.31173624798270    2.33909062622727    1.00936672846543
H           2.06898960205119    2.91284601876364    0.88638887717595
O          -0.96791345531803   -1.49264464984468    1.63125448096506
H          -1.46529996061168   -1.66167673372152    2.43188664911601
O           0.03182249187307   -2.88402913045825   -0.52544461708149
H          -0.34748626066536   -2.55907252907531    0.31006109323840
H          -0.57899441395641   -3.53412764773166   -0.87710833972392
O          -1.67570328881469    2.34243721561298    0.10285833348020
H          -1.17918466086005    2.70678235346050    0.83952272887347
H          -1.00542692080889    2.14141977248015   -0.58052736832716
O          -2.44931443546004   -0.20703760068638   -0.01771688109386
H          -1.58875228282254   -0.97468906847592    1.01873914358817
H          -2.35914203339564    0.76094910808713    0.12406433821245
H          -1.97162932454833   -0.36605317410927   -0.84804154034492
N           1.47968316026628   -0.32168749252198    1.19378729009211
H           0.56905269946249   -0.75595849457702    1.42945565225074
H           1.66947596301615   -0.41374413328715    0.09875850319549
H           1.45268573990096    0.70792092173324    1.36896225898310
H           2.22996654925860   -0.76920475508372    1.70824260374283
