    26
        -50.45784378  Gyration_radius:  2.46045163217 Dipole_moment: 8.284
 S           0.71474996701626   -1.87311289406721    0.83340075570379
O           1.32332069970079   -2.41748245225062   -0.38719907425568
O           1.14210406343381   -2.44690263042821    2.06236049645031
O           0.81425719560065   -0.40526572486974    0.78660177003367
O          -0.84209682331991   -2.17378021513387    0.70998811689020
H          -1.22454143517673   -1.54079220046207    0.07177002455689
H           0.90840551268042    1.18122545418905    0.65024825331498
O          -1.86970845516941   -0.31935561407235   -0.95788168950540
H          -2.79758080487654   -0.49841721570427   -1.11763465123252
O           0.90945492364535    2.16207816937141    0.53311088527246
H           1.45333144296549    2.50304490622232    1.24530543795456
O          -0.79116334402910   -0.17594974062074    2.88171033559792
H          -0.99641260772506   -1.04287340845592    3.23624956481807
H          -0.06763619596489   -0.33269889270550    2.24704385596143
O           1.69800836211200    1.78807087643688   -2.00383632024997
H           1.50599363333266    2.00926053849703   -1.06606346588293
H           1.28156738265932    2.47249270796444   -2.53035098750741
O          -1.78930434300393    1.42788648357982    0.93081281415865
H          -0.97025118215933    1.92674697152678    0.78889765573806
H          -1.84498626713198    0.40097153752002   -0.24591458705482
H          -1.61364757714046    0.88713401413926    1.72836825266496
N           0.61194106507207   -0.69738108905645   -2.10371681973894
H           0.65138971436609   -1.08854707655135   -3.03937627238222
H           1.00949656099326   -1.43544014510432   -1.37527847082156
H           1.14689498185202    0.20052633265576   -2.05826109574513
H          -0.36358644982039   -0.51143868262318   -1.82035480488391
