    26
        -50.46704900  Gyration_radius:  2.49828417225 Dipole_moment: 2.986
 S           0.43438963090172    1.45221110357702    1.09923232948497
O          -0.13066553899977    0.75152701600016    2.24181278672286
O           1.82902079329772    1.16277125873038    0.88177222115671
O          -0.36154729888343    1.15037032301527   -0.11526528243749
O           0.30549162607182    2.98712309355606    1.34599352627668
H          -0.65822739402450    3.14257971348996    1.34562924911454
H           0.72858286348420    0.52709246460489   -1.20851741123120
O           1.36995641742660    0.08566153707230   -1.81096032091974
H           2.12061448200084    0.68144248865406   -1.85197889699566
O          -1.74567839412510   -1.16856673862273   -0.55816332969350
H          -1.41750517132467   -0.25434654825205   -0.48776192067684
O          -2.25827911194910    2.80544260395458    0.69929376130273
H          -1.77086352961940    2.06923175330700    0.28360855423762
H          -2.60769296738168    3.34432154890722   -0.01397527639065
O           2.14792227638494   -1.41887033266611    0.35347575423757
H           1.96406450551735   -1.22480730570370   -0.58126796362896
H           2.25866614507628   -0.52123709976874    0.73093078383972
O          -0.30811908383487   -1.85641215804196   -2.77167919156076
H           0.30975949351827   -1.11973198246335   -2.63402468126451
H           0.22389100285987   -2.63954864159025   -2.91937307702715
H          -1.39562820874272   -1.50205863023273   -1.40620486336791
N          -0.21484904910997   -1.72874493049963    1.49299186871765
H          -0.23986972550753   -0.76211501478053    1.94254481953453
H           0.75588824767660   -1.81130574936693    1.07758280197267
H          -0.41629568539842   -2.46020898035223    2.16496651367997
H          -0.92302631531333   -1.69182076249853    0.69933721493785
