    26
        -50.46234608  Gyration_radius:  2.37978885014 Dipole_moment: 7.199
 S          -0.02809343445200    0.65646995620347    0.77460753088339
O           0.19013343774775   -0.54243434096123   -0.22319672770977
O           0.98314519755724    1.64664806846242    0.42079023966375
O          -1.37480715005282    1.14214655576747    0.63892818061956
O           0.24070857170443    0.03531218573796    2.07580618077448
O          -3.08038700589476   -0.23223508163481   -0.92506494181564
H          -3.04987116253298   -1.07559074600847   -0.45426301939861
H          -2.66397619580007    0.39724663384205   -0.30788085173201
O           3.01615958006841    0.21627333909312   -0.30326669042741
H           2.80825346377358    0.00935843065009   -1.21773959276571
H           2.33796023752135    0.88731172462982   -0.02644792573430
O          -1.85595810184464   -1.83741479487935    1.10461299352357
H          -1.09086570091964   -1.51158330116676    0.61292319454782
H          -1.92576100827519   -1.25965041944524    1.86816206980148
O          -0.48606629071787    2.61808049493632   -1.60090740744355
H          -1.30336348660643    2.83386162481624   -1.14323592840072
H           0.15058085712069    2.41823795924329   -0.88924909441630
O          -0.88212880623835    0.10106472727375   -2.36621136051265
H          -0.21999095716542   -0.30582321508418   -1.17691511391036
H          -1.81276362715963   -0.06591344102118   -2.07371582969228
H          -0.75888838404075    1.07896050270436   -2.31689396130771
N           2.18604135208678   -1.47680284053352    1.51744551600154
H           2.83588706558357   -1.66467294940426    2.27451610490875
H           1.80870363579875   -2.33829902658650    1.13281156572279
H           1.33888267224488   -0.84311936110810    1.86013631726369
H           2.63646525049776   -0.88743269553036    0.74424855155588
