    26
        -50.45231387  Gyration_radius:  2.52474772813 Dipole_moment: 7.573
 S           0.18594365701253    0.36988208769062   -2.46612886457229
O          -0.78238145825113    1.32748908824798   -1.89781098679040
O           0.92227034331743    0.87051111161974   -3.57591077277048
O           1.21867497234595    0.12744599901577   -1.24585342654804
O          -0.41838740803718   -0.94550563372222   -2.63614600946595
H          -0.85504870008467   -1.77896867625367   -1.44273203980318
H           1.28500251476625    0.96799689127055   -0.75739397855825
O          -1.21839523503056   -2.25955791374533   -0.62653037101641
H          -1.61182377600446   -3.06563852916745   -0.96296988077581
O           1.36315645354815   -0.08403518343059    2.38136803870981
H           1.84314074658352   -0.43105961714643    3.13374620614893
O          -0.89812944584353    1.40702842315374    1.98458500009565
H          -0.19499139754145    0.81249176724085    2.30152381306540
H          -0.43494678514681    2.09736246285740    1.49675201141148
O           1.61141337239982    2.01658085559819    0.62872073853062
H           1.69447864085921    1.30892775173674    1.29669405580239
H           2.48547668531110    2.38546027053340    0.49410135114362
O           1.24097855742435   -1.92483348888520    0.53868670097005
H           0.34802545848344   -2.23753312775157    0.31399727257592
H           1.47436752626471   -1.34780055196992   -0.20801074046285
H           1.30446209673304   -0.83062421145679    1.71897451431598
N          -2.14076972688902    0.22956514040872   -0.07611835578064
H          -3.13346181651174    0.41654652622146   -0.15859168271006
H          -1.58873130354142    0.71832987132672   -0.90947842911860
H          -1.75482860188021    0.63690247296153    0.81124448575631
H          -1.94549538035217   -0.78696379627199   -0.13671864016538
