    26
        -50.45784395  Gyration_radius:  2.46070113632 Dipole_moment: 8.295
 S           0.06828620266170    0.92456569786903    1.96353036378444
O          -1.30177685207352    0.60395909086674    2.38384128750198
O           0.71803190080919    1.97147989302133    2.67342296941997
O           0.91849292528085   -0.39438707026262    2.22286142488169
O           0.07808150598504    1.09096710062384    0.50107232191566
H           0.02678293454272    1.20492372338647   -1.08881395089501
H           0.70669916175595   -1.03600301867832    1.51727636899665
O           0.39561625240900   -2.07861392780803    0.18173516020903
H           0.83505324307352   -2.91789900261747    0.32672322389585
O           0.00506415810462    1.21127691829226   -2.07646581358019
H           0.24234284942145    2.10480297681090   -2.33076756239299
O          -2.49082695712748    0.23560224658441   -1.96119507625048
H          -1.62286667310533    0.67904670232574   -2.08501394653670
H          -2.59719653002880   -0.35711990310698   -2.70707670839617
O           2.72691714701951    1.14512973610404    0.47103054404285
H           3.06616255380382    1.12960662271591    1.36774173228925
H           1.77073938283153    1.30799057185017    0.57058078829754
O           1.94538111778096   -0.70999119175283   -1.35157326624495
H           1.36101292807045   -0.11704944868100   -1.84831665086299
H           2.41774495186220   -0.12325030248228   -0.72540402834415
H           0.98791204650743   -1.56231746237849   -0.45781843891809
N          -2.07017776929610   -0.87635395347690    0.47887530782064
H          -2.85129443339281   -1.45568386719695    0.76913005610370
H          -2.30414387430582   -0.35802420624397   -0.39912240387447
H          -1.80410932362431   -0.17403570508940    1.29714333402777
H          -1.22792885896787   -1.44862222068170    0.30660295311592
