    26
        -50.46047173  Gyration_radius:  2.37987215802 Dipole_moment: 7.199
 S          -1.90629773492175   -0.52433273858186   -0.31206337544461
O          -1.76787285056884   -1.68576202807642   -1.15889164587720
O          -3.03522670150271   -0.46144218110657    0.56327486183025
O          -0.62243565746648   -0.57324477394633    0.66534503608318
O          -1.70735479035932    0.73227133691301   -1.06678431734442
H          -0.29317540404197    1.08225881777697   -1.47542572550852
H          -0.04279853136301   -1.30360595864326    0.37098924090489
O           1.26046285177158   -2.35268048188457   -0.02176377158029
H           0.94008277765301   -3.25623630927764   -0.00823529827862
O           0.66887131907237    1.33651104937781   -1.66099199056728
H           0.62955457596257    2.02523539939421   -2.32651276734551
O          -1.71037939895828    1.87577728601150    1.25629497999312
H          -1.84093055386563    1.62760940243707    0.31268186689365
H          -2.21650378411338    1.18673726670416    1.70303607256550
O           1.89523911912702   -0.58835072491350    2.01519297480868
H           1.19570827351554   -0.90487543562824    2.59224001909122
H           1.91502593524367   -1.21493925557750    1.27130682061698
O           0.58087927236551   -1.41999360644677   -2.32957867102124
H           0.74823202965191   -0.46777055882330   -2.29508473887843
H           1.16918425098438   -2.05195562270384   -0.97400975449902
H          -0.36401806917376   -1.54173806626217   -2.07634833078219
N           0.91971168871929    1.71410752776010    1.00302581380519
H           1.32291836102534    0.83346803874936    1.41752622160820
H           0.97645515166664    1.63481420617654   -0.04021913415851
H          -0.12354992196357    1.76055299590663    1.23614721089960
H           1.40821779155807    2.53758442465036    1.33884840216398
