    26
        -50.45745694  Gyration_radius:  2.39263230964 Dipole_moment: 7.909
 S          -1.87922631582021   -0.23389836327878   -0.28406182257568
O          -0.73378504508504   -0.45601005343653    0.61017600506858
O          -2.90178759897640    0.56897543571779    0.31145605173119
O          -1.22637519956410    0.61880318110481   -1.49768162483667
O          -2.28376754348826   -1.46747173034527   -0.92223075714608
H          -1.09909348622756   -2.50175514727851   -0.72414156150424
H          -0.80957295929878    1.43318007209625   -1.08366985340754
O          -0.27533771267055   -3.06136106816518   -0.80825633006484
H          -0.51626734749113   -3.78478023598948   -1.39032784284006
O           2.36295135001203    0.66201834674930    0.09001604805194
H           3.31263259130094    0.71220747952982    0.20628272422614
O          -1.04575079819552    1.75348289913542    2.00899836325472
H          -1.97006210088477    2.01524018238646    1.99058133103581
H          -1.04869089628432    0.88000880998720    1.55884779323285
O           0.14713450575100    2.44364292725743   -0.28880070988725
H           1.00168168216312    1.99652915221867   -0.20426338121451
H          -0.25913142798583    2.40619835614250    0.60547297448770
O           1.25974837523650   -0.08912858371294    2.32081795566210
H           0.83612049371476    0.65813091486808    2.75723983348051
H           0.53542809343520   -0.52230789760097    1.83242014457918
H           1.98612385103654    0.38931705652584    0.97914215478661
N           0.94741168745102   -0.89141386008321   -1.63039891511061
H           0.07180859868346   -0.30809356868230   -1.71113483507826
H           1.56507321498893   -0.39984797566836   -0.94316579740114
H           0.61549417238952   -1.83205286776310   -1.25291089555222
H           1.40723983571304   -0.98961348170818   -2.53040704308004
