    26
        -50.46047157  Gyration_radius:  2.37983505422 Dipole_moment: 7.198
 S          -1.17388479360438   -1.43143994540580    0.76130911375149
O          -0.21294638983488   -2.32572800773490    1.36290709823946
O          -2.47117778747074   -1.34016660735205    1.35589962404374
O          -0.53128504705914    0.03925631362653    0.93404328332793
O          -1.23762550427339   -1.60065618503041   -0.70688768480482
H          -0.08253402059720   -1.05821440347669   -1.51923138500343
H           0.36808433282112   -0.06212365586790    1.30383759352539
O           2.02605194691635    0.07626354405387    1.73678691551420
H           2.15160983483942   -0.31937561239761    2.60104575163788
O           0.65804508627266   -0.61141320423901   -2.04530682643289
H           0.61041352084227   -0.98611509499068   -2.92628315900686
O           0.92931470061131    2.49437938728595    0.95512491896294
H           1.52451748708956    1.75438793881973    1.16623659649867
H           0.26173309231075    2.48507191044469    1.64564351065048
O          -2.69832884951928    0.53738027493163   -0.67387185847626
H          -2.30371169447353   -0.34791481625299   -0.84515838506532
H          -2.99476693981284    0.43669249078782    0.23858603614636
O           2.04565941213426   -1.89400301802022    0.07086877971060
H           2.22156099985587   -0.65425809861250    1.07828521310114
H           1.23451185285584   -2.24434823808679    0.50806590799277
H           1.75816619288308   -1.53104877415336   -0.77860229573913
N          -0.41422256676308    1.74116969363479   -1.25943044149823
H           0.10051323347072    0.92243034748112   -1.66268285037547
H          -0.51479852008674    2.48706428630679   -1.93992978713555
H          -1.36786571090292    1.36479831506364   -0.95347986172235
H           0.11296611149074    2.06791112918833   -0.40777582784409
