    26
        -50.45974704  Gyration_radius:  2.43920533061 Dipole_moment: 6.832
 S          -0.86336829368382   -1.73478162524665   -0.74652626585120
O          -1.90693047601211   -1.18226135704953   -1.57695125010207
O          -0.78340007523595   -3.14844808353615   -0.61523431053155
O           0.45205720170209   -1.12053120394553   -1.09612036374818
O          -1.12292871204028   -1.18902420249058    0.74560722234243
H          -1.25984344166412   -0.21418439827513    0.70049975530579
H           0.66626773818795    0.29365228522820   -1.81801924278245
O          -1.42562648253270    1.43797731872662    0.72470572678828
H          -2.20446184174610    1.72892189316455    1.20055694094984
O           0.84429159573052    1.21260916265163   -2.15353813497194
H           1.33394824346496    1.10873680560299   -2.96982808266622
O           0.51112334786122   -1.80327176707983    2.81047507003384
H           0.07327682412597   -1.58228852913891    3.63382640948865
H          -0.18526493564561   -1.85960462792888    2.12969690620927
O           1.25523923663094    1.96011576949493    0.46425796844616
H           1.23658262287732    1.91722350563564   -0.50881632651518
H           0.31754477295356    1.94286401505234    0.72209938851502
O          -1.88512462197769    1.41559778153116   -1.78263222261528
H          -1.65115747116102    1.52800961114224   -0.26408938551993
H          -1.00080125623644    1.56593973294747   -2.15200593262774
H          -2.01517567504203    0.43494758008555   -1.82326719530540
N           1.95223614413744   -0.54685299043293    0.89581257305553
H           2.93270688394314   -0.78422176185142    0.79552107464527
H           1.55710707821836   -0.96359105184790    1.76099016243841
H           1.79443170572073    0.50471320345955    0.86349125405257
H           1.37726988716184   -0.92224704595500    0.05948825103991
