    26
        -50.46708044  Gyration_radius:  2.46811828407 Dipole_moment: 4.695
 S           0.21264457603982    1.01193197183407    0.51331268965555
O           0.31222423501918   -0.32731297266345   -0.32252740848777
O           1.40480908264293    0.97611749753004    1.34895334451198
O           0.17505417095464    2.11327459248243   -0.41809441147743
O          -1.01204565752180    0.88780221771915    1.30074571115253
O          -2.60467553934125    1.81840288598467   -0.59384889349562
H          -2.18648380978872    1.49961589969501    0.23098514384653
H          -2.06802194349583    2.57539785987128   -0.84648264623685
O           2.23884043542405   -2.25389264198035   -0.20820713465718
H           3.02828276575357   -1.95491653466759   -0.66283209848216
H           1.52907098391167   -1.63533564588741   -0.46057768810425
O          -1.18125122741323   -1.60307276138206    2.00759180093572
H          -1.23300735747736   -0.63043478630005    1.82464352934634
H          -1.51344075635139   -2.03218219078088    1.21592473124138
O           0.25907126045575    1.66508398222400   -3.02707379420055
H           0.21097801852265    2.50846673292726   -3.47938377365395
H           0.34076070221279    1.87230743022338   -2.07074844553461
O          -1.51149559411651   -0.12142117820927   -2.04332706480702
H          -2.10239037875030    0.53531219996292   -1.60039072142417
H          -0.98976501772270    0.39500261913002   -2.68658864948042
H          -0.43958919086955   -0.30375311412440   -1.02902775427142
N           1.44466552412769   -1.42292718379446    2.23011748855372
H           0.41142270721135   -1.65435755450306    2.24011593297830
H           1.90198789169620   -1.94596558240475    1.45596891409111
H           1.49106575052936   -0.37542130658861    1.95236182968965
H           1.88128838835127   -1.59772246629269    3.12838935830814
