    26
        -50.45974699  Gyration_radius:  2.4392577198 Dipole_moment: 6.836
 S          -0.43655784299784   -0.01536896216479    2.03069956952647
O           0.00177546210930    1.30677398579333    2.40990295802727
O          -0.90571341462028   -0.88851375225390    3.05029428083819
O          -1.37758256189552    0.06634547332088    0.87410077446076
O           0.84091062201386   -0.76080102997759    1.39501810904181
H           1.25108012561023   -0.16040750377013    0.72994906972304
H          -1.47516949932343    1.27644691664753   -0.17117683265280
O           1.95961336328037    0.75487631697443   -0.46116993473124
H           2.90657510297057    0.84639278822353   -0.34906150207309
O          -1.48592631265843    1.94647594391654   -0.90588539384871
H          -2.36628784638621    2.32302824645444   -0.91126796382430
O           0.70848127242793   -3.27690034646827    0.41382065517548
H           0.77565660848941   -2.52342709318272    1.02973700460331
H           1.59752540711787   -3.61361834523931    0.29317225794116
O           0.06272577444724    0.19767731284878   -2.36352443400989
H          -0.52716258782981    0.92010041061356   -2.08219777239642
H           0.88449229232765    0.35325531497228   -1.86697261609769
O           0.76533728331769    2.82245323502846    0.43201259840564
H           0.49316922369302    2.38740803901887    1.27861290327550
H           1.55481848432619    1.63911612069969   -0.15973920578843
H          -0.03958818380151    2.84102987965509   -0.10918598272701
N          -1.04773765903713   -1.71784137415666   -0.93017528937781
H          -1.27220524125858   -1.06071526967208   -0.10026531099734
H          -0.58874701699002   -1.07858046367883   -1.64598468023627
H          -0.38612893372421   -2.44147522891129   -0.58818243319951
H          -1.89335389174191   -2.14373061456924   -1.29253082931447
