    26
        -50.44463167  Gyration_radius:  2.43754114377 Dipole_moment: 5.746
 S          -1.23917771147788   -0.38424076242302   -1.68623475215493
O          -1.73664408577139    0.12680951056593   -0.42768797739574
O          -2.19273689676172   -0.64632002850497   -2.69654527244539
O          -0.19391203752537    0.62100689187267   -2.23742832510443
O          -0.39099226854537   -1.63768648605408   -1.37465483101845
H          -0.36487461247540   -1.76639988611011   -0.35433051197227
H           0.50665749891819    0.74509045196749   -1.53251237013798
O          -0.33705727370464   -1.93025675191126    1.13338994123403
H          -1.25609097508217   -1.97934531917934    1.40530125758083
O           1.64132752601759    0.77856674236384   -0.43545590141413
H           2.36911676380598    1.35554622328575   -0.67315052740091
O          -2.05791936031535    1.35234876578558    2.05435782607685
H          -1.87773986663481    2.23513204000062    1.71144422773239
H          -2.25567917851060    0.81981343932527    1.27160646949175
O          -0.91692901970302    2.72357509532905   -0.19243034658466
H          -1.21304833102082    1.80969382895956   -0.33842237501003
H          -0.91150387269044    3.14202026606623   -1.05364171603714
O           0.43414668336027    0.34990921624369    2.06146865586634
H           0.01010987156965   -1.06693618808084    1.53166043465403
H           0.79888454438817    0.79717643888409    1.28496072503809
H          -0.44020629722300    0.76872608994572    2.22718097595732
N           2.40341935588922   -1.74098917040633   -0.33404128777134
H           1.84543026278243   -2.14534076009239   -1.07795466806747
H           3.35351470999300   -2.07883854892825   -0.42150683628454
H           1.99929441134385   -0.16400197480145   -0.38539066607566
H           2.02261016937313   -2.08505910410294    0.54001785124076
