    26
        -50.46060892  Gyration_radius:  2.58730793564 Dipole_moment: 5.775
 S           0.21654940635137   -0.31918692390887    0.58004424828059
O           1.43361244215418    0.03170983443236    1.27810011438426
O           0.30191137208216   -0.13080481617573   -0.86352630044015
O          -0.21283035669903   -1.70475318960057    0.85644622105837
O          -0.94106467786283    0.58182796579032    1.09857172486846
O           2.34096432412147    1.63910347260889   -0.63502887715561
H           1.66906231511498    1.24543992481171   -1.20696207704908
H           2.30340063896736    1.06232415466849    0.14947635247893
O           1.32710830339543    3.80220317599070    0.55664271928111
H           1.71718512876073    3.07480639976932    0.01598002781995
H           2.03943328096658    4.42023012751690    0.72695039667764
O          -2.77122733429323   -1.27618340987211    0.11522388272140
H          -3.01312807164281   -0.41354209322531    0.46106795171251
H          -1.91319243695401   -1.47614769430043    0.53427809524777
O          -1.61354047236250   -1.20904709448793   -2.28868565648714
H          -0.92299605819480   -0.59849003180754   -1.94091659228165
H          -0.86887590735342   -2.41815599747915   -1.86753786765873
H          -2.30382471519413   -1.19397037997732   -1.58953666587874
O           0.42803343227027    2.19231914023351    2.50159277961532
H          -0.52232491935534    1.28322871920238    1.69661694374716
H           1.12063318319301    1.51827688022333    2.42101019044355
H           0.67495783712269    2.90489345051695    1.86769137112759
N          -0.25767833119394   -3.13026417755869   -1.28106980432807
H          -0.15802769427764   -2.60758506009859   -0.33587592297705
H           0.65573710861249   -3.25959298273988   -1.70337718035158
H          -0.72987778770497   -4.01863940457001   -1.14717608487400
