    26
        -50.45788906  Gyration_radius:  2.41138713554 Dipole_moment: 7.656
 S          -0.31699683262782    0.94592109334661   -2.03631733495309
O           0.88394397258148    0.21004965458124   -1.53722090527905
O          -0.60277282305535    0.64729576495232   -3.39863261331978
O          -1.50265939209254    0.41158827396199   -1.12935351749162
O          -0.21846162242372    2.34261651074577   -1.65327209823894
H          -0.67192294560912    2.32163930441727   -0.16312665262801
H          -1.54867674757389   -0.56860204687515   -1.18860065615770
O          -0.78230870056863    2.28367956932058    0.83352447274334
H          -1.34795472141380    3.02119290404669    1.06519414504708
O           1.19817720560890   -1.11991000006533    2.00152062983585
H           1.29668838717315   -1.54489229853242    2.85391507922726
O          -1.54393273748767   -2.19806850183059   -0.83301047128066
H          -1.82157822209335   -2.70125998961213   -1.59972608424648
H          -0.56665407103514   -2.36480638047521   -0.72780915616431
O           1.05914456821969   -2.27174813758537   -0.58707122391999
H           1.12789815429036   -1.43221184700296   -1.08552690238529
H           1.26408208837563   -2.04171258704807    0.33091559733837
O          -1.28520625739527   -0.41556480251599    1.60835428980652
H           0.22686591580790   -0.90544394243382    1.90345444712368
H          -1.28595647990889    0.49017675689179    1.25296628737983
H          -1.65872071860509   -0.97246795913347    0.91541353509812
N           1.64977719588757    1.19017498526646    0.66127075630693
H           1.36941508925729    0.80075626752857   -0.34381789262260
H           0.84654512176506    1.78109754428512    0.94885757358270
H           1.71931315877929    0.37020864431064    1.29078751625646
H           2.51195142414525    1.72029123945469    0.61731117894105
