    26
        -50.44617837  Gyration_radius:  2.5537397739 Dipole_moment: 8.236
 S          -2.00601435408955   -0.51654150083583   -1.52258780861718
O          -2.09611436473622   -0.37456542841299   -0.08602740032469
O          -3.21432942570639   -0.49848886844041   -2.25621234105587
O          -1.01844955539332    0.58226571412104   -2.02807350269935
O          -1.23103419538540   -1.81024162852739   -1.85550406471119
H          -0.45996873964431   -1.94757675817062   -1.22421442845319
H          -1.08878704205008    1.33560866897632   -1.34755466453533
O           0.70728720084243   -2.27883065928673   -0.20799545259741
H           0.78645011177677   -3.23464633294530   -0.19109367890751
O           1.39448435817386    1.97537905143321    0.68793069946440
H           1.89597559157859    2.77160666481639    0.50873156721660
O           0.55374227383813    0.60654077775106    2.91536378263945
H           1.28754226491730    0.51783676942026    3.52466619291375
H           0.87126363034310    1.13608807480354    2.16392991016558
O          -1.20640800917484    2.17025302759064   -0.06792677657026
H          -0.30393387211004    2.17387481160062    0.31673660259994
H          -1.69794076812616    1.47114776243226    0.38779559655203
O          -0.66111639480725   -1.58297583137638    1.84325499575751
H          -1.36986474563145   -1.19159677652401    1.30245283126961
H           0.24287934848770   -2.02482678647943    0.65625775055551
H          -0.26397343229224   -0.83347319158383    2.32823343490031
N           1.83050563807877    0.25346408195107   -1.25425159835524
H           1.71941421280948   -0.67863674889150   -0.86576070878629
H           1.03686612823066    0.40691191396203   -1.86989486387214
H           1.62062584167516    1.31372791962451   -0.03993148895103
H           2.67089827839451    0.25769527299748   -1.81832455559461
