    26
        -50.44035551  Gyration_radius:  2.54901147088 Dipole_moment: 7.389
 S           0.87798193695877    0.05736681130750   -2.37028207143904
O          -0.48756672261485   -0.29134608245788   -2.64772375935087
O           1.65799479760120    0.61552599880537   -3.40920693888118
O           0.85326739936043    1.04996976961351   -1.14681721406034
O           1.62457389936519   -1.16239138621039   -1.78021138921811
H           1.10045481548650   -1.55909697955769   -1.02546102390072
H          -0.08507657070919    1.10636261582461   -0.80067485554164
O           0.43629949155776   -2.21695252710993    0.26442899678619
H           0.93718960476745   -3.01886824864746    0.42687409423369
O          -1.57927486169135    1.23587972259614   -0.26453142102856
H          -2.02142826501080    1.69005717947910   -0.98430926653981
O          -0.47311797823753    1.72196986832889    2.20877677934099
H          -0.90584600598500    1.61234220016930    1.34535045233116
H          -1.08425340778215    2.20276776894103    2.76806879469078
O           2.29838426155941    1.51498693282861    1.20938872609570
H           1.58017388079864    2.00543702432279    1.62649605103447
H           2.05800753723020    1.44375397817286    0.27596139596202
O           1.05148929537559   -0.63343951713343    2.21896779172291
H           0.33433527893752   -0.02427931702226    2.44523634829053
H           0.65485814771377   -1.60437154405821    1.03098526252125
H           1.75756680849919   -0.03320000023895    1.89805233938149
N          -2.19787747799638   -1.24704274889811   -0.63014868110034
H          -1.88219673480580    0.25817758498741   -0.32767896952630
H          -1.82727975946764   -1.20366292751602   -1.57840991650263
H          -1.56721611541554   -1.83984208036038   -0.10111984056910
H          -3.11144325550032   -1.68010409616999   -0.65201169473678
