    26
        -50.46399985  Gyration_radius:  2.5480399091 Dipole_moment: 4.764
 S           1.95396859275108   -0.38067610538033   -0.74988420402390
O           1.30947159716961   -0.29164447123589   -2.05402599169555
O           1.79317422174433    0.79892905897498    0.06169617351285
O           1.54497940052752   -1.60341859804181   -0.05634980552937
O           3.50318479405664   -0.53176079033348   -1.03473685742818
H           3.53206217116936   -1.18890760206557   -1.72299766436314
H          -0.03236210428442   -1.97902020395586    0.07014109563492
O          -0.64941581672271    1.74306039254443    0.61946997295064
H           0.31362493960971    1.64572703331677    0.49006772609751
O          -1.00817836321541   -2.12983169281223    0.14379174061559
H          -1.12163914045284   -3.07253386493025    0.27253013375352
O          -2.59427298772228    2.50169679614874   -1.37097299852107
H          -2.02431978638524    2.57037442032426   -0.59257632517558
H          -3.05819976785047    3.33641427632609   -1.44303224432782
O           1.68104172199814   -0.62868007064903    2.44273023558173
H           2.01906513455039    0.23456097714043    2.18463299277127
H           1.70957296828287   -1.14546118450934    1.61781029054928
O          -0.99160550402178   -0.25768484917465    2.28614370115618
H          -0.05883793993028   -0.40296580678045    2.55393624729011
H          -0.86408272143137    1.13058500144632    1.37237250016982
H          -1.19177512162180   -0.97888654014897    1.67267179932665
N          -1.17463030536950    0.11288368845449   -1.37829005052404
H          -1.85760603360812    0.52704231046182   -2.01007871925847
H          -1.03435177848521    0.80001798983298   -0.56659396081151
H          -1.47722745753368   -0.79058376448765   -0.98926987980871
H          -0.22164072313291   -0.01923639031707   -1.81918590793117
