    26
        -50.45166234  Gyration_radius:  2.45806311868 Dipole_moment: 7.171
 S          -1.96896473751596   -0.53227685220588   -0.86670320561303
O          -1.84074399761973   -0.25295755158112    0.55410152083714
O          -3.22715813954811   -0.24618479979772   -1.44428257336441
O          -0.81485013193603    0.19740680251631   -1.58846815994321
O          -1.60667100800125   -2.01044742381193   -1.11037257169838
H          -0.73428947034562   -2.22314957623752   -0.66358508354589
H          -0.62510456673660    1.13461198321508   -1.16377214267306
O           0.59299328177595   -2.61335608137112    0.12384556028776
H           0.43172605193522   -3.46155929581657    0.54155582637382
O           1.95710195803944    1.17079024044923    0.61490254391310
H           2.81215927447847    1.56665278853301    0.78606813469500
O          -2.01906872501117    2.22293109635733    1.52800436981622
H          -2.17227262908227    1.30593132771567    1.22978407768399
H          -1.80189099323386    2.17293283526733    2.46096672205377
O          -0.23227652093635    2.35367790202186   -0.46291463467884
H           0.58992027953220    2.07421844678808   -0.01101815188242
H          -0.90147860275311    2.49560574798737    0.24150740637947
O           0.41551733773489   -0.72675046584543    1.88892229641724
H          -0.47348690805097   -0.50402738716045    1.54899399021383
H           0.60979957550493   -1.93368919934424    0.86437056230558
H           0.99814519900094   -0.00353206983115    1.60028663518608
N           2.05284524567784   -0.50431845520207   -1.42773011553540
H           1.93046159785164   -1.44258633871193   -1.06140974429886
H           2.07061565597265    0.54812531049029   -0.16788780842626
H           2.77814775106821   -0.53224151504721   -2.13288928653415
H           1.17882322225444   -0.25580745929614   -1.88227618789454
