    26
        -50.45784393  Gyration_radius:  2.46087159135 Dipole_moment: 8.298
 S          -0.71941518362367   -2.01421356357480    0.37875973053773
O          -0.03238556332611   -2.68343096965381   -0.73332821529144
O          -1.17164335686960   -2.85007643167809    1.43653793146331
O           0.10747969895545   -0.87872976232894    0.81891884687966
O          -2.01534751665827   -1.34491848534869   -0.25528125435349
H          -1.73708328215169   -0.54666709667554   -0.74502461863455
H           1.02589539891271    0.36673999663382    1.20414310715799
O           1.56304513860619    1.17278290842961    1.39844569770963
H           1.86840129989388    1.06380122169433    2.30080221007964
O          -1.21185416798212    0.91816561443742   -1.48277360001923
H          -1.95035515783392    1.32427753720771   -1.93907671302698
O          -1.85441624411221    0.02703758861478    2.35153881133011
H          -2.58775837343926   -0.59067106499091    2.34524633972891
H          -1.12081986753666   -0.45472513092560    1.92652310577201
O           3.00293279309362    0.66459795966991   -0.80706339714864
H           2.58772881929942    0.86358367535734    0.06085299043027
H           3.24141005724377    1.51053632133946   -1.18982318836880
O          -1.03703521507352    2.09839655017164    0.79774927909477
H          -1.49155852846275    1.47885955116744    1.40527637928448
H          -0.10180809868652    2.04270439741228    1.04709157474641
H          -1.11973451806985    1.41687772037552   -0.60555195895321
N           0.96565248272045   -0.70747305082343   -1.96189398688128
H           1.17428463014479   -0.95392055892580   -2.92404296668832
H           0.61117388611817   -1.60786383441896   -1.41643505872609
H           1.80756302706202   -0.29470594399758   -1.49797396994135
H           0.19564784212128   -0.02096512911903   -1.91361705612366
