    26
        -50.45137807  Gyration_radius:  2.48724778191 Dipole_moment: 4.473
 S          -1.14972755430772    1.68318844748818   -0.28463814332169
O          -2.15088309755332    0.95786390845211    0.45720171843597
O          -0.64927510245469    2.86909211024808    0.33609629421485
O           0.01738596560071    0.72325714473602   -0.59184437297782
O          -1.66500983846290    1.99445908912996   -1.69522569747256
H          -1.97117877901682    1.09047314762398   -2.01133408922410
H           0.49232537538396    0.39576074017752    0.26248621152546
O          -0.50044355418568   -2.22908241248717   -1.03573531598956
H          -0.84388894680928   -3.11737303410503   -1.14931672993140
O           1.27877404179624   -0.01690125227787    1.46964347688032
H           1.68504943365989    0.86144275747163    1.62277095843733
O           1.76227772848144    2.60913541554020    1.52766072147357
H           0.94019507589709    2.80243703591188    1.03565669595797
H           1.73663017418962    3.16936601248797    2.30564000323933
O          -2.38306284484586   -0.45067190898681   -1.91094419045414
H          -2.78165736693623   -0.34119527653645   -1.03837085377215
H          -1.60941380154173   -1.03940509828243   -1.77272260010078
O          -1.16453420291553   -1.37579933972457    1.38486269947510
H          -1.65596903620659   -0.55858782428458    1.18247632297331
H          -0.72217691101886   -1.96675893068424   -0.10531985366864
H          -0.33444453033347   -1.08178036828368    1.78132638338175
N           2.41713972438150   -1.48139107165969   -0.42891664766422
H           1.51067944751523   -1.74322496815676   -0.81109899906722
H           1.90405784175623   -0.56872024604334    0.92682228507359
H           2.98024108165786   -2.31926711264866   -0.35517465686540
H           2.85690969625956   -0.86631695509760   -1.10200162053660
