    26
        -50.45137804  Gyration_radius:  2.48717337495 Dipole_moment: 4.473
 S          -0.69669461785165    1.77142348481393   -0.78255768838289
O          -1.59533051761219    1.75873593260153    0.34481655835811
O           0.25612593961020    2.83604544723945   -0.80993108377458
O           0.03541045981567    0.41525674801437   -0.83527106443166
O          -1.49585892845643    1.73502549953260   -2.09101780708283
H          -2.10760348817028    0.95113937791753   -1.94184980101789
H           0.63339159186204    0.25848065047564   -0.01041425543749
O          -1.34797528067757   -2.11283474783100    0.09876152253907
H          -1.93067231027772   -2.79987501770741    0.42792305069417
O           1.59770906249700    0.03862348620705    1.11569862627863
H           2.24760430373814    0.70736269080229    0.81512202243906
O           2.75201707934432    2.16057635091087   -0.02377601437151
H           1.90397510509733    2.45189817882699   -0.41265125237745
H           3.10290241056847    2.92567326140799    0.43584317709623
O          -2.86455011997586   -0.20221426116018   -1.13499641175075
H          -2.26801596167672   -0.94116997115144   -0.88535974931344
H          -2.95052108315594    0.33850222724060   -0.33970503626789
O          -1.03472531474538   -0.29463081728902    2.00278099300942
H          -0.07881545259669   -0.19856765786686    2.10080721240336
H          -1.32987429282450    0.51914056806119    1.55449901094833
H          -1.21400591736305   -1.48303389683111    0.85305631599733
N           1.70960909257050   -2.29707519960743   -0.14023965154407
H           1.87002929960424   -0.85208391394708    0.76539134151716
H           2.02684855422941   -3.19955292956781    0.19063519471921
H           0.69589911219106   -2.33166415728192   -0.22718829599971
H           2.08312127426588   -2.15518136381113   -1.07037693426642
