    26
        -50.45971332  Gyration_radius:  2.45367440631 Dipole_moment: 7.635
 S           0.80593711501461   -0.46934494173293   -2.21223318687593
O           0.75869784490070    0.62592317891499   -1.20728325673048
O           1.82979766474020   -0.27712017103365   -3.18046025435267
O           0.88737812599108   -1.75303458817368   -1.48766825534557
O          -0.58381826414008   -0.44531891247016   -2.91516728602362
H          -1.22285068098810   -0.60339834809173   -2.18246438725545
H           1.62668035450041    0.81202033489005    0.07023095163902
O          -1.33975022621979   -0.93124837052458    1.82844185371045
H          -1.99249320719007   -1.08564651125974    2.51177766481725
O           2.09867599691188    0.85159871759613    0.95358055078147
H           2.94516322826164    1.26483676735137    0.78014666320040
O          -2.19692461896724   -0.53047672115248   -0.82916041099078
H          -1.89834100810038   -0.87507181730268    0.02627069134738
H          -2.17726365969690    0.43693702050630   -0.73756409181803
O          -1.31047174803697    2.06824384134822   -0.66232909118339
H          -1.42693075175939    2.76265997818782   -1.31128314639485
H          -0.50392677538722    1.55776902862778   -0.94203197223673
O          -0.47311686662034    1.52465590217703    1.89440968556824
H          -0.85580269772106    1.89759311580650    1.08108821573933
H          -1.06406616774136    0.02897892033637    1.90693949885929
H           0.47681003246411    1.44342277410329    1.71806522092342
N           1.13415280623012   -1.67766501612426    1.01403311876857
H           1.02107757081778   -1.73542425885343   -0.10103484612828
H           1.66837974925187   -0.80961835185757    1.20070174633701
H           0.18450861710661   -1.58052546639256    1.41702930311616
H           1.60849754637990   -2.50074609486797    1.36596504052874
