    26
        -50.47014112  Gyration_radius:  2.40826690333 Dipole_moment: 4.177
 S          -1.27489604831741    1.04932784127463   -0.86610231398446
O           0.05400040401327    1.22300548033880   -1.48043190266237
O          -2.23910516219721    0.46954101822850   -1.74702547096845
O          -1.10926369808756    0.22361966548270    0.35622014511521
O          -1.75352995566509    2.44791748472397   -0.39900329507362
H          -0.93006166702344    2.93822264834762   -0.13563494311865
H          -1.50627838094728   -1.24143926907190   -0.51499431458903
O          -1.42656294151068   -2.05758642871205   -1.04657785240563
H          -2.02380771548176   -1.89769170955054   -1.78315651389245
O           1.99464046476586   -1.25855148465734    1.06872507499156
H           1.23253218406564   -1.72542130438962    1.47443025469469
O          -0.46760948019193   -2.04872640992817    1.80284125645490
H          -0.87083277329230   -2.73571268094248    1.26642317820967
H          -0.82639186318204   -1.21425143848197    1.46140326961586
O           0.66003325281379    3.28748635839699    0.09381259036780
H           0.93034164903152    2.73705247027121    0.84843554345931
H           0.81766559083625    2.73246050326843   -0.68665583878081
O           0.86182594328122    1.13672911406284    1.79113673589530
H           0.09277487972987    0.81476752044380    1.25340414847771
H           0.56303263418619    1.14472535776686    2.70246780277981
H           1.88817675881490   -0.33641919306080    1.36508973900441
N           1.08785376796425   -1.15480623335128   -1.38652476232983
H           1.71250216990984   -1.42814919165941   -2.13708328117826
H           0.75837223692607   -0.14554056790483   -1.50250679904986
H           0.21364595718803   -1.72800588846336   -1.37549191680625
H           1.56094179224233   -1.23255365241028   -0.42320054421796
