    26
        -50.47014105  Gyration_radius:  2.40821558298 Dipole_moment: 4.178
 S          -0.79803095922749   -0.18580935095387   -1.67503221801548
O           0.64347226090776   -0.48720801380643   -1.74407055008485
O          -1.63041648317247   -1.30676577654357   -1.97929008724067
O          -1.09088202465274    0.33913594088291   -0.31785744874175
O          -1.07601148843809    0.96937062677072   -2.67085327786786
H          -0.25414909338805    1.52834479274231   -2.66784915819097
H          -1.56852128053961   -1.24663514326037    0.25001818117399
O          -1.53675232564463   -2.14521559817173    0.63280231122695
H          -1.90275985745272   -2.69376985045967   -0.06715918146892
O           1.39507860339868    0.27954054348676    2.16357219984921
H           0.48138651759306    0.28312360090909    2.52178406247842
O          -1.27860493541532    0.24013146740509    2.44280037295473
H          -1.37009757384941    0.42128254849160    1.49384788697345
H          -1.67889911070040   -0.62280888754079    2.57488590485536
O           1.27634143319234    2.03271248504116   -2.34212614780511
H           1.49368504532797    1.08903410494249   -2.27692068141764
H           1.24696989329159    2.34487198960136   -1.42168712914007
O           0.63889396947533    2.17543725491708    0.32606233145467
H           1.41408421469657    1.04767466221232    1.56434704664501
H          -0.03405905711151    1.49684566670283    0.05987184846688
H           0.14566515156517    2.89690767348294    0.72113944295020
N           1.11836472200661   -1.71706901869137    0.49047272073632
H           1.03834098133338   -1.24902365879006   -0.46622667517731
H           1.33093000780916   -0.94695879290560    1.21119641246452
H           0.16673977698382   -2.10296916712417    0.68647061582735
H           1.82923159184138   -2.44018007946215    0.48980121731982
