    26
        -50.47014103  Gyration_radius:  2.40822182631 Dipole_moment: 4.174
 S           0.56587665211184   -0.77570077178260   -1.59796509927485
O           1.70664784763990   -0.54926665141358   -0.69193502676402
O           0.32449582447583   -2.15625521540121   -1.87709318672860
O          -0.63153690099579   -0.14007601864830   -0.99354697900035
O           0.86247281118383   -0.01068195390185   -2.91325395227131
H           1.37892369401142    0.79450616212603   -2.64331127086730
H          -1.13236688481746   -1.65038267842302   -0.26429641770387
O          -1.23643858994839   -2.38741344013228    0.36895282301666
H          -0.95638840100026   -3.15382229592058   -0.14005336746376
O          -0.46974695495901    1.16728158984154    2.26282873765865
H          -1.37621838737122    0.91376997065527    1.98468417041518
O          -2.60122100741008    0.23318639903414    0.91709468417061
H          -2.05957182488042    0.18411156234603    0.11358320698689
H          -2.85760060746051   -0.67313654517264    1.10493177305233
O           2.20434260270984    1.86518037828408   -1.70743761272835
H           1.52229948471137    2.31650142690035   -1.18148370623249
H           2.45619347317255    1.09295323088191   -1.17616906671490
O          -0.06515002280760    2.27910365824104   -0.21590991083967
H          -0.79338968811197    2.83856912455531   -0.49260798415347
H          -0.16541068677243    1.76161465078019    1.55321523658049
H          -0.28010273733166    1.36761744604336   -0.54324142969519
N           0.73481639952954   -1.07796859804923    1.65482321340247
H           0.29703678109544   -0.15969528518108    2.00544808019273
H           1.35775364843585   -1.48617559264417    2.34298347137415
H          -0.03486246047107   -1.73222661498534    1.38565505234543
H           1.24914595510332   -0.86159392784923    0.74410457103366
