    26
        -50.45971314  Gyration_radius:  2.45341831195 Dipole_moment: 7.632
 S          -1.87001348390568    0.87804259841667   -1.22103612643140
O          -0.47087595982144    0.41582971985028   -1.42235707750811
O          -2.62752427711736    0.86323784258064   -2.42464061170822
O          -2.45985051488423    0.08881673872429   -0.12164902362901
O          -1.75075923912547    2.34136008745916   -0.70101993747221
H          -1.23469692091602    2.25472574723922    0.13349975151909
H           0.07118695378727   -1.04067957549554   -1.49052338629084
O           0.42437906664466   -1.97442089213774   -1.40093309453704
H           0.33534700498215   -2.37258016841602   -2.26744589572558
O           0.79427119854741   -0.49251130322212    2.26402957454472
H           1.29095855035596   -0.53346024800387    3.08164016181010
O          -0.08054267393216    2.01586084016602    1.31520245511814
H           0.03074559218785    1.15314904362093    1.74309230030435
H           0.69005961627786    2.11442581362285    0.73137742747195
O           1.65025726009066    1.75006009450565   -0.80691215621012
H           1.85414931605257    2.40232054974174   -1.47762475290350
H           0.82494614821387    1.28570246772105   -1.11124787456917
O           2.36791246195128   -0.70064942426854    0.19826639445459
H           1.87172381299364   -1.25886038275711   -0.41991543258614
H           2.33043416886666    0.19662742059417   -0.17675689574638
H           1.46106867258420   -0.56612072345653    1.51961670612609
N          -1.09783869805343   -1.79882427508167    0.83103588512548
H          -0.53182459097147   -2.14462491684791    0.03475070654353
H          -1.68827430463954   -2.52304672550467    1.22268474061378
H          -0.46326214576645   -1.39440734924868    1.54333070892035
H          -1.72197703441120   -0.95997299979436    0.42353548276679
