    26
        -50.45662160  Gyration_radius:  2.42865977742 Dipole_moment: 8.139
 S           1.96441003765981   -1.17682532456224    0.18135913157859
O           1.46499781113147   -2.38946397463489   -0.48781544524252
O           3.37413428670015   -1.06482060180142    0.30738057387043
O           1.31317356864021   -0.01326220127186   -0.44493902063280
O           1.37084257651172   -1.21072026992613    1.65594767476364
H           0.40193132227894   -1.32098531251936    1.59716477022109
H           1.18996348773139    1.10606078849091    0.72140506906196
O          -1.33827739558726   -1.31570564073697    1.56546095118064
H          -1.69624875630042   -1.55237421332293    2.42178467882016
O           0.98474106053346    1.79340371141662    1.40089139934922
H           1.43807587522533    1.50446993135480    2.19438525215496
O          -1.40715536330270    0.98429465879590   -1.68763111200377
H          -1.91724244032729    1.28882372495460   -2.43923696109465
H          -0.55240729504267    1.49832739033781   -1.70867873285800
O           0.87892206923042    2.27454400992837   -1.66876590624649
H           0.94928936498047    2.83801196183926   -0.89220884927989
H           1.31174622178133    1.43969025199265   -1.40658869079016
O          -1.61460025987116    1.19970302790826    1.10166159180432
H          -0.71750498093657    1.54702672588207    1.30478046899507
H          -1.68260290727578    1.22683269720760    0.13436953308067
H          -1.49412682282714   -0.32339374036557    1.45200969845866
N          -0.86949128654139   -1.66754350541133   -1.08580448219526
H          -0.90123372150131   -0.67462982981865   -1.39150577560022
H          -1.33337834978499   -2.27274308527883   -1.75455031559362
H           0.19155080837344   -1.99110430491145   -0.91534561918298
H          -1.30950892141288   -1.72761689554748   -0.15552986261795
