    26
        -50.45662179  Gyration_radius:  2.42870304352 Dipole_moment: 8.145
 S           0.66568664099532   -1.56716646950975   -1.54296249542597
O           1.87058515973521   -0.83827254437749   -1.97230424950153
O           0.59896667836416   -2.93824882287936   -1.90540548863722
O           0.46512769619965   -1.30468241614815   -0.10733591593892
O          -0.56195510998930   -0.84351609149717   -2.24824923348330
H          -0.51813303820158    0.11061669174370   -2.04322879896755
H          -1.13743025614088   -1.35927957856101    0.13190694274852
O          -2.10076168916677   -1.27212752442511    0.33345847600137
H          -2.54990294416886   -1.55303127158939   -0.46530386750193
O          -0.61889891394354    1.77919925286454   -1.55687252018896
H          -1.20774490424231    2.26791141892406   -2.13295392958847
O           0.71399032502680    0.93342521758668    2.10187581843733
H           0.49713490209282   -0.02287240718993    2.28605168732457
H           1.11874514842891    1.27151591046215    2.90171457306475
O           0.12077983210984   -1.59458205632087    2.48439056887968
H          -0.83126904021097   -1.73111201659803    2.46123942262278
H           0.41651631295570   -1.77001438254269    1.57070223346956
O          -1.70197932161971    1.34960704765637    0.73685418300607
H          -1.10642090959937    1.66121506510748   -0.67922902347012
H          -2.00260010761875    0.41728680460698    0.65174554151504
H          -0.93314641522329    1.31403188782231    1.32710969046179
N           1.77982533354987    1.15975123495781   -0.44625877377441
H           1.02390982513196    1.68974152319332   -0.90493955182043
H           1.90112897756285    0.24054239635267   -1.07821464736569
H           2.64000119350026    1.69611950872301   -0.41221147755102
H           1.45784462457702    0.90394163163268    0.50842081573062
