    26
        -50.45745694  Gyration_radius:  2.39294632378 Dipole_moment: 7.908
 S          -1.68594344090757    0.10060909340120   -0.90302329991650
O          -0.97308957396582   -0.24942622007294    0.33397639963287
O          -2.65434796548040    1.13540687522440   -0.71268669287589
O          -0.50546934948754    0.69606758345141   -1.84054577472163
O          -2.10731247493783   -1.08812841749921   -1.61127435547555
H          -1.29890515018628   -2.30578218467581   -0.99702882676576
H          -0.08697540381885    1.45187244197005   -1.32894867517171
O          -0.63051919334754   -3.01693009712813   -0.78239769176410
H          -0.81272893173066   -3.73183342003147   -1.39551571402365
O           2.28479589796475    0.20609649328181    0.87738841350576
H           3.13082638151328    0.08466561647643    1.31030500626613
O          -1.25566125272364    2.10120105371763    1.48707665203315
H          -2.04551111118248    2.53058777069990    1.14790463413512
H          -1.29396372631224    1.20570287573598    1.08424506088956
O           0.74522846392908    2.33290018905210   -0.27974250186860
H           1.40992689498431    1.74184352323681    0.10251765110029
H           0.06869866791839    2.45760202453169    0.42228935674679
O           0.37555292060227   -0.10518814167572    2.61393042469618
H          -0.00092321440188    0.74720457623109    2.85915349030502
H          -0.22116240599422   -0.43845883409454    1.91849549625241
H           1.58733509003798    0.09618155514369    1.59039099079729
N           1.22196188133020   -1.20399074022387   -1.18594768656378
H           0.56490272083114   -0.47547330552864   -1.57467407120257
H           1.66714879754415   -0.77667761346034   -0.34053559995866
H           0.59474862225543   -2.02541575716227   -0.92325808354397
H           1.92138683557779   -1.47063692059858   -1.87209459249862
