    26
        -50.46171697  Gyration_radius:  2.48612765338 Dipole_moment: 7.119
 S           0.59894786272779   -2.03332605759277   -0.69414675481913
O           1.72436762576635   -1.17367050552423   -0.32462851575953
O           0.37572439100788   -3.13437614273899    0.18262841525229
O          -0.61445541996401   -1.19749759019583   -0.84489344630578
O           0.90490303080148   -2.56453358668475   -2.14497495908871
H           0.99877703270327   -1.74826385567241   -2.65516370249130
H          -1.12984040668959   -1.30966859893340    0.69691428743232
O           1.14135906973547    2.37555785465381    0.63162806635549
H           1.14947385247453    3.09774637939043    1.26032603836563
O          -1.33833014051433   -1.23973903034060    1.65796459726783
H          -1.24270055692729   -2.13857015781387    1.98232978599676
O           1.38613949245840    0.14314374556370   -2.53595271239903
H           1.60524060529033   -0.19794610934720   -1.64016222536378
H           2.21334781507285    0.45946604442724   -2.90454218240765
O          -2.61481820168854    1.14401917111098    1.28683409230653
H          -2.44916525055558    1.62459360969780    2.09993880607725
H          -2.35326607843012    0.22140484705102    1.46422207376261
O           1.09751057520440    0.09114072966313    1.92018476968438
H           1.22646601956072    1.53908296045912    1.16401189776440
H           0.21994151483503   -0.30688768245080    2.04372257896835
H           1.50031923840652   -0.43333536253402    1.19868490774648
N          -0.88523148178829    1.37996857968518   -0.78511154881679
H          -1.11880528707242    1.78750408161378   -1.68348622094611
H          -0.67810684959262    0.33920226048595   -0.91454103570614
H          -0.04491601283838    1.84454072615168   -0.36032245791627
H          -1.67288244012606    1.43044366999939   -0.10146453496504
