    26
        -50.46171688  Gyration_radius:  2.48634591944 Dipole_moment: 7.121
 S          -1.97757032066709   -0.28159939147191    0.99192425363198
O          -1.93482145439104    0.84461262660943    0.05814479190750
O          -2.78920734615784   -1.37502520524647    0.57169763107835
O          -0.59170466600600   -0.71033711385457    1.29056776193843
O          -2.52404457001714    0.29153946072314    2.35329826787884
H          -1.88719248310365    0.98921898384789    2.56125538635806
H          -0.45597077649104   -1.80448807403722    0.09089905508840
O          -0.32133663480951   -2.33149861070283   -0.73134174515991
H          -1.12623986226522   -2.84940779175634   -0.80971355920212
O           1.26548670992729    1.79175826133777   -1.59172073550293
H           1.82418171656041    1.89801839340036   -2.36204725342324
O           2.37772884987482   -1.93785094897441   -0.63169330093111
H           2.64355364665333   -1.91523941307393   -1.55278083513683
H           1.46434218499832   -2.27955382018262   -0.62570327990502
O          -0.56805440384112    2.18589817395112    1.81063372784285
H          -0.77025686456076    3.12336674770289    1.79326210461532
H          -1.01071353727024    1.80177855612459    1.02117975047434
O          -0.63767849092719    0.06558408904251   -2.11975464110823
H          -0.46659171992891   -0.84872966180777   -1.83945136431060
H          -1.26610972418108    0.40838571614323   -1.45237901074246
H           0.50815574830571    1.21035584401271   -1.87241035356637
N           1.67192628302648    0.35946946670380    0.61910025163896
H           2.17828039025722    0.76772412804943    1.39665824893011
H           2.13396771093673   -0.49726730443117    0.24118725029436
H           0.70645206945882    0.04566777548388    0.95423285253455
H           1.55341756460063    1.04761914237281   -0.16504523523527
