    26
        -50.44052788  Gyration_radius:  2.59301970845 Dipole_moment: 6.619
 S          -2.42362751153455   -0.72602042178955    0.44522327036550
O          -2.63353866592948   -0.45764003839581   -0.95353481615333
O          -3.39672078647568   -1.48061177534879    1.13786019987342
O          -1.02042404688154   -1.42027715963258    0.57135203472262
O          -2.19313175424120    0.60998140359691    1.19176116641832
H          -1.53673358831244    1.16736690132608    0.68185440115944
H          -0.60655907567613   -1.49645947596758   -0.33584053818487
O          -0.45674068535701    2.10542549838471   -0.01252247219561
H          -0.75898262723664    3.00829432590890    0.10163167793203
O           0.04042507856831   -1.57227048489108   -1.79760779103936
H          -0.51399773375672   -2.16678422686965   -2.30703636081084
O           2.56127790865758   -1.74381662325258   -0.63113179193799
H           3.13236864960500   -1.17856585562883   -1.15334340548911
H           1.71407803205191   -1.79346826489900   -1.10023151120530
O           1.51485777305602   -1.01364573757059    1.82388237564992
H           0.60355660913263   -1.29506501047104    1.68247931107512
H           2.01349978578091   -1.36208691152328    1.06469213097871
O          -0.79480824659818    0.79683960388662   -2.41263547696865
H          -0.50143912912468    1.39492565673109   -1.70710074519794
H          -0.17096247725153   -0.64658411199455   -2.12816199330140
H          -1.66835634480938    0.48301017411346   -2.11134417586635
N           1.49613076800998    1.77681785188374    1.64431565441807
H           0.35032401730684    1.98321833689631    0.62128641583743
H           1.54619969376435    0.75489429771710    1.76538630499230
H           2.41504637917961    2.09808576257457    1.36692925711149
H           1.28825796797684    2.17443629524224    2.55183687785017
