    26
        -50.46846768  Gyration_radius:  2.39943897742 Dipole_moment: 5.640
 S          -1.39342253257106   -0.64774067904507   -0.97560088156452
O          -0.43692352164994    0.22880268777629   -1.69441065244508
O          -1.75134497721401   -1.80250440019526   -1.75389987365711
O          -0.83088072216891   -1.00452001841304    0.32194925782035
O          -2.66704810817374    0.21252639202237   -0.71680178859359
H          -2.39949146657845    0.90329438315259   -0.06403198724369
H          -0.04976084921302   -3.27784763616896    0.11781739442400
O           0.25693302119774   -3.23764179874271   -0.79307135423437
H          -0.51241523682748   -2.85935368219303   -1.27925867959012
O           2.12821385886213    0.62362660628649    1.14298365528857
H           2.84058672092281    0.65090336582704    1.78285318404391
O          -1.81538953609726    2.15226332597036    0.89719829717998
H          -2.37883413830296    2.91351554590537    0.74790897076591
H          -0.95127825055698    2.34513242421439    0.43574352533131
O           0.44008226211910    2.35824203331324   -0.40191204836393
H           0.13234421345198    1.65824158153719   -1.01844707609408
H           1.15899970974516    1.95699737012742    0.10537242263670
O          -0.13758531585348    0.40590755225376    2.39710438637124
H          -0.72211269915251    1.16650605887913    2.29811966809891
H          -0.46956553393959   -0.23194111049145    1.72483777083098
H           1.28152782013429    0.54572924119451    1.67716413566836
N           1.69593928208199   -1.02022734055369   -0.99040150583261
H           1.26223679345865   -1.97626573831241   -0.82390701813966
H           0.88130084045210   -0.45267720749717   -1.40253798272176
H           1.95748872642570   -0.54055056234895   -0.10270211087878
H           2.48039964944816   -1.07041840449835   -1.63206967910673
