    26
        -50.46708060  Gyration_radius:  2.46832376562 Dipole_moment: 4.695
 S          -0.57510789491137    0.06381882051547   -0.99938649488940
O           0.09873802033812   -0.64503659170125   -2.07841573315266
O          -1.96867347329728   -0.27750377688347   -0.84623633448116
O           0.18992054898484   -0.42826978854737    0.29473237103319
O          -0.34394468016110    1.50528987056886   -1.06230853857555
O          -2.37066219973348    2.13606023834329    0.51486999741758
H          -3.02769271275936    1.56507251815431    0.10603590457608
H          -1.61822822289487    2.11174866285000   -0.10967874347339
O           2.08875734262556    1.89236979205330   -0.24673133241601
H           2.00976894480261    1.83560069503789    0.70813354279426
H           1.15956519438906    1.88725764113552   -0.59136492087115
O           2.28377654489716   -2.16636361717494    0.47087299277266
H           1.48947311455858   -1.61994011982194    0.61419204985528
H           1.97314570288782   -3.06699642597026    0.36303279556377
O          -2.81600548963795   -1.50900805196270    1.34002311041591
H          -2.51894332928428   -1.15826426522981    0.47232415366986
H          -3.76325341291861   -1.63351560831071    1.26687168401878
O          -1.18506630739302    0.46275439807390    2.20368819900100
H          -0.32332606573309   -0.06122595009756    1.11136510095854
H          -1.65497570853044    1.20660848464448    1.75352300535884
H          -1.82618848544056   -0.27307968434261    2.22235401090848
N           2.57752894526764   -0.37055574421540   -1.51833080908030
H           3.24613270063073   -0.37914524617751   -2.28055637513964
H           1.55952788220467   -0.50240886474215   -1.86875768694936
H           2.74655219049081   -1.13304716647217   -0.83130010065079
H           2.56918086066946    0.55777979024518   -1.00895183867620
