    26
        -50.46972960  Gyration_radius:  2.43077040671 Dipole_moment: 5.138
 S           0.79069057413537    1.16321871559846   -0.69926616869691
O           2.16318868318679    1.23017328468943   -1.12755715463931
O           0.43955939955368   -0.38450450003687   -0.74864473229231
O           0.62784998479812    1.52624678402820    0.72319825146568
O          -0.16848158348398    1.84795511171449   -1.53288472066439
O          -2.18023196214931    0.44836996967082   -2.53840069909310
H          -2.03434663746855    0.31409397584074   -3.47507663590406
H          -1.44913382633247    1.02937441018369   -2.23162106600138
O          -0.64478893870651   -2.25746665313753    1.54240831895503
H          -0.49159358987716   -2.98379122392484    0.93516063000452
H          -1.30662355430856   -1.68787189316660    1.11078971614755
O           3.20767921701826   -0.90825497460259   -0.10426796421604
H           2.96685543027409   -1.56751895919355   -0.75829613084511
H           2.93841881785160   -0.04272292162892   -0.51181839311024
O          -1.97410129167367    1.96111086981896    0.69382596271827
H          -1.00399503921806    1.93715095861452    0.82715652531663
H          -2.09153492234926    2.43484776441179   -0.13474286297843
O          -2.07292538743873   -0.55358053009749   -0.05866563026708
H          -2.18314472038214    0.34524200463233    0.34870100782856
H          -2.40412889593445   -0.44057358656930   -0.96738456464504
H          -0.52434909493221   -0.47030555290070   -0.51521821207223
N           1.48483056424879   -0.60404193015796    1.87628628931883
H           0.69379786223689   -1.28722281167491    1.82729811247157
H           1.85454572779352   -0.53036958512504    2.81807649040050
H           2.23882274218439   -0.86262083577784    1.17645661686521
H           1.12314044097440    0.34306210879289    1.52448700393270
