    26
        -50.46539897  Gyration_radius:  2.43461897011 Dipole_moment: 6.435
 S          -0.22859868908518   -2.07482849058985    1.07237892540510
O           1.06864407749559   -1.41998135104553    1.22939365744296
O          -1.18631473127961   -1.75728444474832    2.08380572563688
O          -0.75092905693459   -1.83652839717831   -0.28156037905236
O           0.07679675852825   -3.62889483915329    1.14872334767198
H           0.86936286158007   -3.72335098817448    0.62896896806973
H          -1.73677922217131   -0.62432384629520    0.15012172477516
O           1.15740553154195    2.41515177104450    0.10487015944414
H           1.48589251851850    3.22773282681590    0.49012904346103
O          -2.21768497288462    0.19513335286588    0.42385715570501
H          -2.81375585872494   -0.10310266890211    1.11455467369414
O           0.30659864802287   -0.55311932593247   -2.31813967152647
H          -0.12773646341383   -1.18245223403967   -1.70036845247294
H           1.19990933242139   -0.41497000194363   -1.90845131939186
O           2.33292791454342   -0.07485392807171   -0.72042807031968
H           1.98623124389111   -0.61620624606123    0.01773474470933
H           2.19789947745932    0.84365633452750   -0.45185541754055
O           0.06934841993467    0.92959950398737    1.91521322023711
H          -0.84710733559389    0.74486489370539    1.65978453765428
H           0.51438220068993    0.05984841096418    1.85948620028179
H           0.78608952210406    1.87201940044899    0.86517118413269
N          -0.84775260637814    1.57535524665129   -1.48613514847826
H          -0.09405418253587    2.07447267646338   -0.96679777523898
H          -1.28356283683784    2.17001742737431   -2.18127617368366
H          -0.37663324388915    0.67618629790889   -1.94453068926106
H          -1.54057932701554    1.22585858939043   -0.80465016135891
