    26
        -50.44411510  Gyration_radius:  2.40103999327 Dipole_moment: 6.550
 S          -0.04579242040600   -1.73937790023424   -0.12534316969852
O          -1.40832949713653   -1.69306997994498   -0.67068599583897
O           0.51107863639153   -3.04188233593776    0.00400968547550
O           0.79442517102327   -0.78835348925937   -0.88314095311929
O          -0.15785483848931   -1.12167889902191    1.32736491570710
H          -0.10198262539091   -0.14942156536468    1.26375283859277
H          -0.12329734462892   -0.04757692495975   -1.84541682085935
O          -0.90489558143960    0.35783642828503   -2.34726685015620
H          -1.50540925274377   -0.39670676571422   -2.40998169822601
O           0.07950207772932    1.56976644196297    1.15526145840178
H           0.12182820517584    1.95544167162706    2.03118713715636
O          -3.11048498673065   -0.21592049593069    0.48912008022044
H          -2.44957706633949   -0.89040013418801    0.13495224466990
H          -3.97264626543070   -0.49910149227669    0.17967775990800
O           2.75530188491619   -1.51041685826306    0.87127812340201
H           2.09431645877219   -1.39896157757724    0.17279966724497
H           2.56556588140414   -2.38003983875300    1.22990078950507
O          -1.86819373692901    1.72135853202049   -0.51669357367374
H          -1.44972161246067    1.19881109679202   -1.38894260287934
H          -2.49059379859783    1.00852598711468   -0.08058618730624
H          -1.10092482030623    1.80347363250080    0.13061664249323
N           2.45870738567614    1.29925230136135    0.24144580802379
H           3.16393064303064    2.01077415086592    0.09701863983424
H           1.05094390074719    1.52737160677264    0.78833966947654
H           2.23615336638416    0.87008598785686   -0.65162173732536
H           2.85795025578431    0.55021039026638    0.80295410898355
