    26
        -50.46306687  Gyration_radius:  2.54532122821 Dipole_moment: 3.915
 S           0.04248829228879    1.75690920712651   -1.40581999337940
O          -0.60374888512277    0.79017771989675   -2.29301795695245
O          -0.37416196926822    1.58376493239893   -0.02809616750117
O           1.48170935920660    1.75509996775781   -1.57371383089258
O          -0.46569745084958    3.18719181773345   -1.84878445748481
H           0.01509011637266    3.31431923130146   -2.65980660428784
H           2.35500684490125    0.42407055511681   -1.04509400351968
O          -0.69087828182517   -2.11845480532251    0.59609300047215
H          -0.73540527758167   -2.83093366123453    1.23473920643135
O           2.56946670982809   -0.47390662215652   -0.70070998576379
H           2.32373919532926   -0.44474421598467    0.23593993729050
O          -2.36753856868049    0.16375263918737    1.14721370336049
H          -1.80322255570863    0.79918421357257    0.67072471091986
H          -2.12950113425890   -0.70260402399377    0.79336627639669
O          -0.93462750416122    0.18389332237743    3.42137907597282
H          -1.59487780774562    0.16883194471612    2.68837176789414
H          -1.01162451519980    1.04967542161287    3.82378054521012
O           0.87087674664565   -0.19687191000780    1.47631058309579
H           0.44122278209121   -0.07696721196165    2.35022420668473
H          -0.07755278158014   -1.43221255706420    0.98481761908984
H           0.50406468270173    0.53614115596629    0.93367133291362
N           0.43335537026093   -1.51790220603025   -1.77821890177412
H          -0.05259246571781   -0.60528600077532   -2.06372888058496
H           1.39373340801771   -1.22026252207021   -1.39765793623826
H          -0.10166411475780   -1.94218607843097   -0.99574948052556
H           0.51233979479442   -2.15068033366685   -2.56623376688737
