    26
        -50.46788072  Gyration_radius:  2.39878703256 Dipole_moment: 5.647
 S          -0.89942204812007   -1.21682968573959   -0.98619065146814
O          -0.86597366327793    0.14533661539313   -1.56901002829876
O          -0.68800361699908   -2.23424791422359   -1.98005210894393
O           0.06823571740036   -1.29532963805457    0.10271774799827
O          -2.31974094201108   -1.39557928855975   -0.36693912653295
H          -2.37520795917952   -0.76862345369992    0.39347933040643
H           1.97201297126999   -2.54469329670447   -0.77558239039212
O          -2.36385919531351    0.23118072317638    1.74540190680627
H          -2.98820855718886   -0.12211906864793    2.38127874721488
O           1.94163474153647   -2.17986981516555   -1.66492428260261
H           1.00409594672943   -2.31205771290809   -1.93914042469388
O           1.40723345661545    1.82614692768795    0.93956471993520
H           0.45467451663275    1.99004021307028    0.67794967677821
H           1.77877611421795    2.68515741714436    1.14424503194267
O          -1.06812035032914    2.12939654286521    0.16298404184006
H          -1.69597758978823    1.78080797721357    0.80861792611445
H          -1.08744194160362    1.47566752095398   -0.57031637745664
O           0.10293739211831   -0.20150695087976    2.47095835129336
H          -1.45091249682143    0.07937430823111    2.12901015469780
H           0.16999833941080   -0.76432500552789    1.66797085117723
H           0.67263852013616    0.55191082982952    2.26683379671782
N           1.68269980410784    0.44748217205539   -1.41330157987695
H           1.95391417569280   -0.57973852291918   -1.45001710560316
H           1.80310324025437    0.86029475951086   -0.46605225165932
H           2.16929257738115    0.98794869128219   -2.12107176286130
H           0.62162084714031    0.42417563460473   -1.58841417254421
