    26
        -50.46306742  Gyration_radius:  2.54508458819 Dipole_moment: 3.901
 S          -0.26362190691431   -1.82899088216743    1.28497974837854
O           0.02758212370531   -2.49753992965655    0.01720363978053
O           0.49346717431536   -0.60113604890938    1.43066887774314
O          -1.68855240093841   -1.64968833336658    1.47831072167937
O           0.23193514198530   -2.79743016227365    2.43242637371012
H          -0.44665786321196   -3.46399784448826    2.42121226667242
H          -2.50127474539641   -0.54657944459853    0.51069367093165
O           0.63014909960856    1.04360144616694   -1.95788560601819
H           0.78272313425094    1.84243079792443   -2.46395909148540
O          -2.69456467167414    0.09854718769246   -0.20863640568632
H          -2.20124973906427    0.89593121436834    0.03500267803894
O           1.84771807915955    2.87898180488145    0.95123213134779
H           2.27678945736271    2.05224118507989    0.62607371584628
H           2.11275497960172    2.96772870203366    1.86736272732481
O           2.59384317066386    0.45133755439892    0.07065490345451
H           2.19025931970108    0.44814506241534   -0.80656511661369
H           1.98068360174586   -0.05114965996986    0.63709479069994
O          -0.44957676213671    1.62640196519120    0.36620505599035
H          -0.17973683649044    0.81441737044606    0.85008498084975
H           0.21219460723708    2.29456570979093    0.64597789358541
H           0.21090584637137    1.33285539503372   -1.09831548854772
N          -1.03729737620036   -1.07007756499226   -1.85250670055844
H          -1.38516193826834   -1.58338422764611   -2.65445941760940
H          -1.82654220013601   -0.58775529652955   -1.30479442867868
H          -0.56583124455356   -1.72788895281839   -1.14850159798503
H          -0.35093805073831   -0.34156703792780   -2.12956030284455
