    26
        -50.46539809  Gyration_radius:  2.43463152578 Dipole_moment: 6.420
 S          -0.53494506719585    2.25507719095710   -0.36808384457107
O           0.78809978401194    2.00260392155581    0.19963746070585
O          -0.57605818507943    2.29885824678070   -1.79550150052132
O          -1.50964213723493    1.30352964554353    0.18601948019768
O          -0.95958406624042    3.67920996558667    0.18508452208786
H          -0.66809139318076    3.65861430929929    1.09160149117466
H          -1.47475971688875    0.29570977394538   -1.08248482194176
O          -1.32301335886112   -0.36063037574804   -1.80641424849049
H          -1.53400377883177    0.12302640629614   -2.60819198895272
O           1.97350021600750   -1.81389739846435    0.05593517748385
H           2.77459673206316   -2.26434367042125   -0.21231191825567
O          -1.21620802572018   -0.58842527391823    1.98757207909873
H          -1.49521450517052    0.17127270944638    1.42939762688218
H          -0.28898979492354   -0.34885803055148    2.24762814062561
O           1.30533614256360    0.13622285821960    2.05958037394063
H           1.19151512324248    0.89357395999406    1.44998352232782
H           1.75214446823646   -0.54662478811084    1.54182644533849
O           1.44714457741903    0.13595746994138   -1.55354021390682
H           1.85169800378967   -1.04892742597093   -0.58486010263755
H           0.56081731625418    0.00617683558627   -1.92373464683311
H           1.36021191177439    0.93560657864631   -0.99639586174961
N          -0.69008444732907   -2.21918131196981    0.08537758569944
H           0.35144434922498   -2.26274244289889    0.08204513743531
H          -1.10532593268155   -3.14210294657365    0.13660802085973
H          -0.97945702900914   -1.58441032273229    0.95389353519761
H          -1.00113120624309   -1.71529588443556   -0.76067143119056
