    26
        -50.46062134  Gyration_radius:  2.43286308457 Dipole_moment: 5.490
 S          -0.16797958609089   -1.90360604334872   -0.85805167069465
O           0.85849941327563   -1.33504507824369   -1.73212357195624
O          -0.53171944761167   -3.24983312597071   -1.13304132189645
O           0.16344249494134   -1.64663137550519    0.55528739630794
O          -1.43500538395416   -0.95556192143124   -1.12470838619961
H          -1.82039285250590   -0.74020641308998   -0.26174461442341
H           1.84280620628489   -1.42480279365912    0.49984469693578
O          -2.47166328108067    0.29955811721435    1.08275052680068
H          -3.14734019224912   -0.09226770822720    1.63802185016010
O           2.75107876010112   -1.08831742564238    0.35682377492079
H           2.91950466972345   -1.26126302050241   -0.57300568793849
O          -1.97774887694360    1.76901577593094   -1.25676198340542
H          -2.27276709010778    1.04445876041702   -1.81801968203470
H          -2.25621324231603    1.52000172241965   -0.36316398116211
O           1.96183105399482    1.40771582435600    0.88716204771587
H           2.45758104259279    0.56322486414410    0.77816678567551
H           1.27666598221162    1.20945839825968    1.54617866314119
O          -0.09142018482649    0.20392190010568    2.31180316821644
H           0.10492759959280   -0.17884347689219    3.16851158290996
H          -1.66227936418952    0.38660783828484    1.63119560766281
H           0.04850410331238   -0.52957841385423    1.65040993693640
N           0.68682045530688    1.21653052302706   -1.40632753812845
H           1.19806566847945    1.40772177036670   -0.48722888434012
H           1.13500702411404    1.72176365795774   -2.16387049676125
H           0.74735311028496    0.15655966243140   -1.59277211233677
H          -0.31755809231018    1.49941797144004   -1.33533613613598
