    26
        -50.44411503  Gyration_radius:  2.40104184299 Dipole_moment: 6.549
 S          -0.26252669474603    0.17825650197066    1.71553738803743
O          -0.22474573580217    1.64150811819744    1.59918272061222
O          -0.48553365833235   -0.31958185783832    3.02922846254367
O          -1.19423207919971   -0.34854561185417    0.69622934710074
O           1.17002968186497   -0.31284905138245    1.25579498304410
H           1.18236298715560   -0.38907286587690    0.28298625315298
H          -1.64533676498185    0.83236150241283   -0.15173100884500
O           1.17580995106265   -0.60033622925227   -1.43665013995627
H           1.99772597774950   -0.99877185628909   -1.72554472443627
O          -1.76089850454406    1.72562591244266   -0.61625749621022
H          -1.65733032288427    2.34134244246758    0.12113805130063
O           1.64442197638242    2.68280291888748    0.24103761452763
H           1.67176007487297    3.61054382284979    0.48143330971184
H           0.99676496494824    2.24612441429544    0.87917003026059
O          -0.42405800984008   -2.79763002410141    1.61889920025157
H          -0.79458954585161   -1.92389312845830    1.42743741362502
H          -0.10471802003537   -2.71898882940383    2.52036997641708
O           0.42263574220607    1.83374106078866   -1.78219727432020
H           0.72237701084009    0.87214822738574   -1.78799540090406
H          -0.58931167996645    1.81343455367492   -1.35341425470800
H           0.99737952037320    2.27245945432168   -1.03174781138937
N          -0.61726500829398   -2.42180773701036   -1.24457015388129
H          -0.33093404690242   -2.96852413370554   -0.43540927317411
H          -0.95634113861539   -3.05144323112357   -1.96072809845154
H          -1.38929673588117   -1.84932096174371   -0.91701924236272
H           0.45585007838159   -1.34958345163317   -1.42517987202193
