    26
        -50.46972958  Gyration_radius:  2.43078371954 Dipole_moment: 5.136
 S          -0.58427889133538    1.45055174166701    0.14655006244772
O          -1.53907036302040    0.66440002799041   -0.66093165900518
O           0.74101511143531    0.57590323039725    0.14303735499158
O          -0.20159718311990    2.67821737057744   -0.50006586030927
O          -1.01991397671677    1.56450178987561    1.51804146082457
O          -2.40559083191866   -0.93370555409535    1.25099767661230
H          -2.49716766861098   -0.33026879023403    1.99411378934719
H          -2.25666114327391   -0.35029367621859    0.47840576645689
O           0.26353413772718    0.16147260696677    3.36234137746415
H           0.80666432410921    0.75053543948865    3.88640790165033
H          -0.24168308736916    0.73661311940404    2.74581082809072
O           1.45755844095550    1.89239845466112   -2.32781554497421
H           2.27280441552795    1.82547582838593   -1.82657605701451
H           0.81230320859805    2.31270650633149   -1.69950439834309
O           1.22448358343616   -2.30721451761748   -1.03272586563523
H           2.15398846856768   -2.15646599860586   -0.85091577817971
H           0.77713455879526   -2.27097322869573   -0.16830080865722
O           0.12204125733487   -1.63624598339042    1.38419422549880
H           0.53514589517321   -0.26342766430182    0.63707789566724
H           0.34376497380196   -1.28760457791335    2.26597556306847
H          -0.86754274976621   -1.56659079210471    1.34207945479447
N           0.02223347295480   -0.32323628810944   -2.44662867252648
H          -0.73641611644225    0.03559670626101   -1.77781993154379
H           0.69078930608587    0.49568833992999   -2.53339946861789
H           0.49799186435585   -1.13344467512445   -1.98609956480381
H          -0.37153100729245   -0.58458940552532   -3.34424975731059
