    26
        -50.46160809  Gyration_radius:  2.37608197433 Dipole_moment: 6.532
 S           0.84925807220379    1.23191324581980   -0.60329417041433
O           1.81364558987577    0.66029708260653   -1.53215193028016
O           0.86882860972192    2.66019281072457   -0.45751592324177
O          -0.59703219647608    0.88393704772222   -1.23613384176193
O           0.86784362660586    0.52771108839452    0.67258083511118
H           0.03558406515203    0.64553725896938    2.20830062817461
H          -0.42085622978956    0.19094558978983   -1.92821660989534
O           0.12887503381533   -2.54694568251560   -0.26944462369337
H           0.24390463781897   -3.48060234525375   -0.08595662178577
O          -0.83101851150789    0.69146483564665    2.66111168206146
H          -1.17152948101124    1.55349620270615    2.35098042161113
O           0.18073495376706   -1.09351694284901   -2.70583083739680
H           0.16110379437083   -1.79388367564926   -2.03541884880216
H           1.03636238712255   -0.64078716196927   -2.60595257213705
O          -1.30970570780547    2.75837661544877    1.02763638819625
H          -0.49938461651251    2.71152767035910    0.47193369607426
H          -1.51441344464778    3.69238031865211    1.09790023160665
O           2.48399485121172   -1.44823559368101   -0.10396475073363
H           1.03790060346462   -2.13343128658530   -0.16150450651943
H           2.37562688302173   -0.68138263768689   -0.71264528561938
H           2.47497544868916   -1.03653187051715    0.76565944543804
N          -1.67409661632268   -0.69429804863857    0.64047260324399
H          -1.03811113469576   -1.49565341099474    0.44979815021332
H          -1.42320485856546   -0.22652616199370    1.58840725644773
H          -1.42943259717824    0.02882532552672   -0.07592552840301
H          -2.64985316230033   -0.96481027411179    0.57917473249302
