    26
        -50.46160802  Gyration_radius:  2.37602132345 Dipole_moment: 6.532
 S           1.49077593581108   -0.48514016791144   -0.37995935864294
O           1.35551516559477   -1.43912197762973   -1.47131282624255
O           2.82671565934691   -0.20859785134466    0.06772992738999
O           0.93913300478292    0.91261235663150   -0.97588289064255
O           0.57749557853075   -0.80226678195643    0.71070494573675
H           0.19596961498944   -0.14449360607146    2.28663819067846
H           0.45435108590592    0.66909707089268   -1.81018695316470
O          -2.34165728124841   -0.65097875251175   -0.81650445790585
H          -3.23881178075285   -0.98709080493838   -0.84386351241004
O          -0.05360260708955    0.65347711992911    2.79584574872345
H           0.74623384673009    1.20713726202351    2.70154531930609
O          -0.47506316494673   -0.10615945537104   -2.88288378630264
H          -1.27612106923835   -0.31672015711381   -2.37858854284379
H           0.13957867647609   -0.84801064219923   -2.74549348735052
O           2.11651236279886    1.75537597787205    1.67991755047138
H           2.37169823635412    1.02303145364831    1.07478583229144
H           2.94341997861360    2.15030647897600    1.96179770597899
O          -0.76891192386247   -2.71255727921431   -0.57672140455995
H           0.05327957408051   -2.37000444597654   -0.99746294260149
H          -0.54770414515530   -2.71467843445937    0.35965988019060
H          -1.75303363139941   -1.45392569727002   -0.68314108429892
N          -1.18202697044706    1.39830900904640    0.58561509309539
H          -0.86057967493277    1.14964883481694    1.59324918410292
H          -1.65956188307869    2.29166255665251    0.53203585460025
H          -0.29695727241389    1.40091614127159    0.02655290053781
H          -1.75664729552296    0.62817177216972    0.18592313389014
