    26
        -50.46972955  Gyration_radius:  2.43073815279 Dipole_moment: 5.139
 S           0.99123330095083    1.19901760921613    0.21734680549288
O           1.83185639643627    1.23483851618713   -0.95560644942701
O          -0.46620796521690    0.78549161578171   -0.25839504386112
O           1.39262399339210    0.11582244623509    1.13781799248793
O           0.80054660492341    2.45292051637595    0.89784955890732
O           0.81404915188714    0.39441806154038   -3.25233960823475
H           0.64480612857187    1.14862889000492   -3.81729976470917
H           1.25467944971667    0.75156627715439   -2.44956973465229
O           2.29732256787450   -1.58158948488258   -0.66806920916150
H           2.09705745939076   -1.01809908309614    0.10768830725325
H           2.77605772075720   -1.00290614074826   -1.26864218902572
O          -2.08361539149849   -1.85359447761793    0.33722006740598
H          -2.83293336377320   -1.41250068924017   -0.06743858223627
H          -1.40695183103172   -1.91819429766210   -0.36038237686779
O          -1.48360332730636    2.14320253768599    2.08013686920685
H          -2.09362441997564    2.35820888664816    1.37159472500159
H          -0.58733031142569    2.36874263187428    1.71462173163276
O          -0.16418039982844   -1.44859829558426   -1.57572448055521
H           0.74368138887838   -1.69504579366765   -1.25802618566561
H          -0.37113292677803   -0.05201214035511   -0.78793644075920
H          -0.00172819453419   -1.00683203720798   -2.42819704246874
N          -0.84678269422559   -0.41364445345635    2.28094703145295
H           0.14699533024212   -0.28032138418689    1.89852985289186
H          -1.37327764645775   -1.01169155938147    1.60274012679125
H          -0.83264160333334   -0.82649579137854    3.20747342349037
H          -1.24689941763788    0.56866763977294    2.29366061561180
