    26
        -50.46361233  Gyration_radius:  2.49103429332 Dipole_moment: 4.951
 S           1.62309535530726    0.18782118303410    1.57535113545624
O           2.52363265352490   -0.27315184588007    0.52504209977637
O           0.94966689173053    1.42263422013894    1.24293080578944
O           0.70531213665785   -0.87118226161615    1.98097462311577
O           2.53283816387217    0.49639723510438    2.83141268686370
H           3.06281912922891   -0.29036714038681    2.90933785302836
H          -0.02976316346420   -1.59983652189235    0.75651124851608
O          -1.38426695040865   -0.15950882160324   -3.04628299674020
H          -1.38434173251467    0.74361297300751   -3.36965353089820
O          -0.49354413236456   -1.98914978930665   -0.03056185346915
H          -0.68937750499033   -2.89987252811011    0.19296642397169
O          -1.46643089937749    0.82653437884862    2.24546639079726
H          -0.66671654574351    1.30537234027187    1.96621333725770
H          -1.11666930144459   -0.01257589767878    2.56516227921796
O          -0.26680206650390    1.81188236182142   -1.12800462295831
H           0.20602777911520    1.95995729719493   -0.28968584638505
H          -1.11070664201550    1.37965251265714   -0.86144638442655
O          -2.21810813763012    0.17802092450447   -0.25828576429307
H          -2.19402008262586    0.50207384128515    0.66748528482073
H          -1.97288023587787   -0.15978571484489   -2.28274526747577
H          -1.76338618073472   -0.67911719220811   -0.21769660943630
N           1.04787212326340   -0.38753675250765   -1.62063415467732
H           0.51082795089231    0.54774033992515   -1.59239949573162
H           0.37706983552381   -1.13212149014430   -1.37323354589819
H           1.44404135338799   -0.55551736772210   -2.53902821794741
H           1.77381022320641   -0.35197629390741   -0.84919587827856
