    26
        -50.45507557  Gyration_radius:  2.42464570353 Dipole_moment: 10.700
 S          -2.04432999907692   -0.90542923393509    0.48203744338066
O          -2.22753885571588   -0.49062835877139   -0.91094053968715
O          -2.94368236759357   -1.90623565320912    0.93880827058382
O          -0.61469880372813   -1.24940504870849    0.68936382727814
O          -2.24842273901551    0.39246386729374    1.36416727480351
H          -1.47779837403429    0.94745172944413    1.16447086711814
H          -0.29946081105776   -1.99978537423385   -0.71276929030350
O          -0.22924316219313   -2.11966010839009   -1.69263478506769
H          -1.11045259775993   -1.84156368184318   -1.97999145441451
O           2.32004405778798    0.60772865325241    0.58952795702640
H           3.16410452412391    0.93377116613476    0.90421606972602
O          -0.05232336149113    2.00230894931753    1.02270649319342
H          -0.02774459804793    2.26353225205608    1.94546490347083
H           0.77840795223651    1.52081972012024    0.84978001838554
O          -0.95126770142348    1.62235130459087   -1.61039037671437
H          -1.55743514776990    0.85588158683265   -1.39146148439436
H          -0.84629551619321    2.11118539810390   -0.78588041200216
O           1.13127042806186   -0.72651924370960    2.47734483258741
H           1.40103330510236   -1.57518082649475    2.83117183627146
H           1.95894428620866    0.01358125193051    1.30537058808640
H           0.35969609381231   -0.92862257270437    1.87793589460811
N           1.13569087371158    0.09858746406028   -1.88632425088030
H           0.32083449403542    0.80988664541932   -1.84652623471246
H           1.69411831487243    0.20121856856722   -1.02646113092280
H           0.65976434998112   -0.86935648543873   -1.88596491933071
H           1.70678535516670    0.23161803031643   -2.71302139808759
