    26
        -50.45507571  Gyration_radius:  2.4246143316 Dipole_moment: 10.700
 S          -2.09580074224380    0.10764489778625   -0.90771597111752
O          -1.26775110821323   -0.08818831886755   -2.10012069425583
O          -3.46383301262618   -0.24656079006008   -1.05597832839559
O          -1.43072662110352   -0.55286571236540    0.24400507776551
O          -2.01200934458247    1.64805230736633   -0.55490628204240
H          -1.09883980279063    1.78013984582364   -0.25419826542519
H          -0.88147407564776   -1.89469766061526   -0.48114806522303
O          -0.38368014490536   -2.44425163703777   -1.13654336682300
H          -0.67435135427593   -2.05104094076226   -1.97156691821718
O           1.55902962387990    0.02128729601998    1.91376791782748
H           2.12954127515730    0.16128189774703    2.67053160619008
O           0.48533603323221    2.14607196523528    0.46802157303156
H           0.15677428151793    2.76123077990328    1.12678628352072
H           0.87559064657870    1.39836677013608    0.95853013843800
O           1.06820135403630    0.96955337696222   -2.01360684377155
H           0.14364236633047    0.61656511325247   -2.16669587156441
H           0.96409764762046    1.70535028701288   -1.39912342084681
O          -0.92951995035827    0.09965549698261    2.66093218074148
H          -1.23654238567216   -0.08122698773739    1.72907856060220
H          -1.38080527628709   -0.54945880586809    3.20240199343125
H           0.62873935499384   -0.05141751456854    2.26756753669725
N           1.80029291732375   -1.10438696856772   -0.62957207181860
H           1.77487848783102   -0.82358054864993    0.36150737818047
H           1.61170464517596   -0.22644328529642   -1.23396934251160
H           2.68596526249121   -1.53678004147007   -0.86603231407762
H           0.97153990255184   -1.76430081235950   -0.83195249034142
