    26
        -50.44576767  Gyration_radius:  2.49222215713 Dipole_moment: 4.982
 S          -1.83718143851844    1.06791710614314    1.19942971016392
O          -0.81159930774499    1.30333669287878    2.18875653450028
O          -3.07196799618876    1.73438684153757    1.36872628774940
O          -1.22559418663485    1.38079337425440   -0.19433070071945
O          -2.09575149337064   -0.46479922282663    1.12824867734974
H          -1.52314643710150   -0.91441404655857    0.43575189888234
H          -0.22118361061108    1.48628165854341   -0.04301949094385
O          -0.71226161890639   -1.67430637551819   -0.67449401308987
H          -1.20569252044725   -2.44335568136443   -0.96318799677540
O           1.22032240193159    1.54714498851528    0.43995694588461
H           0.98490117816219    1.79921091766842    1.34201342089351
O           0.32364277885699   -1.01435560531327    2.87719102922144
H          -0.41057914332016   -1.60843875336752    3.04065406183888
H          -0.07326826922401   -0.12821679716510    2.76312881483653
O           2.34900550829033    0.43341449509776   -1.96934092927812
H           2.27083747657508    1.23414495998948   -1.44084599025953
H           2.53642944124307   -0.27265403231497   -1.34150028625324
O           1.66479944440351   -1.04226395812731    0.54752553635146
H           0.92788538810014   -1.42015080487726    0.04050954914441
H           1.47927210306609    0.58427067128605    0.49239546306571
H           1.40068416205444   -1.16050392987206    1.48235433238653
N          -0.39936106676512   -0.05019992315000   -2.64707074953733
H          -0.89470754538129    0.78667913027618   -2.36280568802799
H           0.60258753494250    0.15370740067408   -2.61819359830667
H          -0.62366837177631   -1.04382204396461   -1.49212300744188
H          -0.65440441161104   -0.27380706242038   -3.59972979162113
