    26
        -50.45604784  Gyration_radius:  2.44481563803 Dipole_moment: 8.183
 S           0.80301144157218   -1.85007289856949    1.01767119024867
O           1.93654034793003   -1.38336841409702    0.17724618322807
O           1.21290138284865   -2.63689659546888    2.12508165493137
O          -0.03050451335822   -0.68602461882390    1.35201608889403
O          -0.09506558049191   -2.72660623474747    0.06345132129952
H          -0.64297124171657   -2.10184893813357   -0.45009150887228
H           1.06520091757567    0.48489880195938    1.57378289498971
O          -1.48041411201970   -1.03919958214345   -1.52482731221364
H          -2.31150443651523   -1.44324776099303   -1.77729138535780
O           1.80039034874638    1.13723506286644    1.47223238809659
H           2.55560869097549    0.58732781628339    1.24371642127823
O          -2.35855265404528    0.39428480811052    1.94971614476163
H          -1.54527304434477   -0.13448700085391    1.81268500177241
H          -2.21976079923916    0.88088873843878    2.76354285351638
O           0.74523702664397    2.26458477081704   -0.62032354930610
H           1.15478366919633    1.91268670672834    0.22331247586796
H           1.00082015611081    3.18508165351231   -0.68634009233402
O          -1.92393135788923    1.30295245494122   -0.53850566623612
H          -1.05385070420168    1.72514281277602   -0.47309479084487
H          -1.71432381026453   -0.14510378072511   -1.11556070085153
H          -2.19515885388226    1.08457583778936    0.37897865805977
N           1.06140068807879   -0.15079227638972   -1.83018433456872
H           0.97032730240626    0.84370988778973   -1.54809508801305
H           1.65534902607874   -0.25334961455644   -2.64501080240082
H           1.48856060207285   -0.71303131130248   -0.94591826052796
H           0.12117949773593   -0.53934034521392   -1.99818979541781
