    26
        -50.45604778  Gyration_radius:  2.44487808982 Dipole_moment: 8.183
 S          -2.06768802069036    0.38465596565160    0.82505227154898
O          -1.30504075490711   -0.12559144442667    1.99423726042639
O          -3.18225954701580    1.18420766489474    1.18843811980996
O          -1.11822242659106    1.01912900361704   -0.10098393334350
O          -2.57657355297719   -0.89792146552603    0.06255908929058
H          -1.82614465434980   -1.21359032763317   -0.47717608789018
H          -0.07139115938640    1.74115995299145    0.90090365766908
O           0.59433255356663    1.94567777706811    1.60183855798435
H           0.18037318776652    1.61588993624159    2.40489948203205
O          -0.47578599345793   -1.92912045674657   -1.28455755538348
H          -0.78694158014963   -2.38752652782342   -2.06608770340614
O          -0.37983865905835    1.72248897289885   -2.53108007971411
H          -0.80474889899931    1.49095947097031   -1.67912959156687
H          -0.20748679892123    2.66433358661704   -2.48949270806863
O           2.35703253737954    0.28290371393063    0.65754994923248
H           3.24842777530593    0.56755355944741    0.86094840306989
H           1.74196561488622    0.98723686058165    1.01644148453805
O           1.35721329819464   -0.23883943986986   -1.94669801545773
H           0.82292203832227    0.51405290633428   -2.27954732767957
H           1.75235994024474    0.05465317390170   -1.11162930777903
H           0.21055731183192   -1.25973161796059   -1.60451754398466
N           0.53132665138883   -1.65442873700077    1.21597891199815
H           0.20158991179443   -2.03857285033556    0.31765126128967
H           1.36005816714740   -1.05436348187221    1.04278222443538
H          -0.29433532262532   -0.98372652837017    1.60145549428426
H           0.73829837133536   -2.39148965757863    1.88016369666553
