    26
        -50.46631279  Gyration_radius:  2.39731394231 Dipole_moment: 8.095
 S          -1.60144938904246    0.01872292902556   -1.06690248364138
O          -0.29377134986127    0.47821437797973   -1.59586105149819
O          -2.23398098868822   -0.91720301460297   -1.94526968386095
O          -1.37747026854603   -0.56120433050924    0.27506584816998
O          -2.47705930634143    1.27208870746200   -0.88403976644116
H          -1.98101397678386    1.85874085314572   -0.23898087620773
H          -1.14505433138881   -2.20810673066449   -0.10247971089634
O          -0.82906922015750   -2.92439496866761   -0.69344533819229
H          -1.38068810147338   -2.78770898116126   -1.47570934654777
O           2.19379239709280   -0.15359392533999    1.18762919130423
H           2.87658377542859   -0.18845439535632    1.85865328434720
O          -1.03932839951195    2.61684717467346    0.80550314767483
H          -0.16720788695398    2.71691874039089    0.36615757165576
H          -0.86806617292857    2.03471126431894    1.55872049609452
O           1.34700635454789    2.20182246372303   -0.37887845008124
H           1.82612471375773    1.55677115841237    0.15479183142028
H           0.79576051477829    1.67576422100104   -0.98868067414604
O          -0.16472512698727    0.37942150545097    2.30397566611749
H           1.34829013516161    0.05172424657879    1.65418309723173
H          -0.66796856816623    0.02301012357237    1.51483397951308
H          -0.52039517010754   -0.07784948970515    3.06735365316197
N           1.30901393336346   -1.43591006169441   -1.07963839582107
H           0.60260627565722   -2.21190078739501   -0.91711099437010
H           1.99528237396030   -1.67965419222030   -1.78531377059998
H           0.68958220493096   -0.59799894712203   -1.39646110694268
H           1.76320557789024   -1.14077796119533   -0.19809610726708
