    26
        -50.46361221  Gyration_radius:  2.49093812745 Dipole_moment: 4.946
 S           1.62138575263766   -1.34738101074603    0.84100083066490
O           2.54970116586573   -0.36732725295657    0.28941691755016
O           0.72348866086361   -0.78644684986277    1.82475559952839
O           0.92680628244569   -2.06700308811993   -0.22116135123819
O           2.50720436444916   -2.41571687513007    1.59904670180338
H           3.17059556350444   -2.63921989977211    0.95412543303641
H           0.28954135163496   -1.11514183973967   -1.34325030477146
O          -1.44719143104479    2.79669899347673   -1.14110140627597
H          -1.62417255605313    3.32662188714377   -0.36129516188423
O          -0.12618687738593   -0.48407777081274   -1.98742584451583
H          -0.14661071306527   -0.93377226115720   -2.83307619859629
O          -1.50399713418350   -2.09622823859402    1.10278077650609
H          -0.99350399139183   -2.57412840780815    0.43962513785250
H          -0.81745884200173   -1.64655285032871    1.62540740348415
O          -0.63359294942032    1.50137718562928    1.40433081522376
H          -1.37448620677565    1.07183262413523    0.91794913849276
H          -0.16367160761626    0.76379180767007    1.83262927090454
O          -2.22206172132845    0.11160203748903   -0.26285544364231
H          -1.99647019128249    2.00977736107018   -1.04808795924581
H          -1.61827290216725   -0.09463444788010   -0.99501732774757
H          -2.22163002422439   -0.70530187610733    0.28053316353543
N           1.03809657093857    1.56171323958747   -0.59832420194867
H           0.34198304296337    1.71320283045708    0.21185321372275
H           0.52315169503334    1.09082916163087   -1.35899779519517
H           1.42286393970228    2.44294196494653   -0.92083696455336
H           1.77448873791444    0.88254358578578   -0.25202445271192
