    26
        -50.45869662  Gyration_radius:  2.39059191045 Dipole_moment: 8.394
 S           0.25839159261290   -1.58005195721582   -1.29532920422115
O          -0.30521868631182   -2.65061093437934   -0.50463580449617
O           0.12743163530973   -1.67146380226622   -2.71684179708548
O          -0.56845366304906   -0.26488853674254   -0.86069027705264
O           1.63320109611262   -1.23874982871377   -0.87395465232693
H           1.72548581890210   -0.48360848373520    0.43400555539325
H          -1.32146512674441   -0.53571913789701   -0.30299602975145
O          -2.45320163528408   -0.70740611929981    0.98820204249352
H          -3.00627710228438   -1.44862542059137    0.73589500226820
O           1.77251147182281    0.09875532486524    1.26245153734161
H           2.67088040188576    0.00886339349470    1.58463504737817
O          -1.81593394386548    1.98428070598731    0.88748889459255
H          -1.78777465747926    2.14787748457214    1.83249405234912
H          -2.17511809538165    1.08655720630595    0.78846424641564
O           1.32989055484307    0.81331087228613   -2.44911292358929
H           0.66365964378693    0.40597283088595   -3.01560733193578
H           1.65995546641282    0.03532599212017   -1.94703300445387
O          -0.27994635870965   -1.74179848724367    1.95961016710123
H           0.43576162721687   -1.09100701094627    1.93888041273231
H          -1.70478451097889   -1.09714103787962    1.52578239683843
H          -0.20169610353275   -2.24602850560416    1.11576453726322
N           0.66931263721724    2.06578988505615   -0.21612987136024
H           1.04585435044527    3.00780056369485   -0.19294194087261
H          -0.34086387545725    2.04985771344611    0.05793087972767
H           0.79828063511006    1.62547167957231   -1.18399743573763
H           1.17011685740916    1.42723559023786    0.44766548098822
