    26
        -50.45300971  Gyration_radius:  2.43493563317 Dipole_moment: 5.196
 S          -0.21771372016666    0.94973855549752   -1.85504061987836
O          -1.33454473364481    1.30281010311702   -0.99150121715514
O          -0.35878094028752    1.29647640476591   -3.21891112764121
O           1.05025516563070    1.59027197535622   -1.26766421050133
O           0.01450848049360   -0.57177747342184   -1.71337964867622
H          -0.32075771107484   -0.90428998107547   -0.80314494867154
H           1.54558173473019    0.97559720957224   -0.58682171682202
O          -0.84931346484476   -1.38526880688096    0.53253086510914
H          -1.80115701926826   -1.15834010491785    0.45234191324274
O           2.18663925097495    0.12851437280743    0.41940463231260
H           1.63424318224842    0.18063753739441    1.21694616675317
O          -3.22917116338070   -0.29650940378692    0.01275746126184
H          -3.83105455038731   -0.55164817122129   -0.68792251032099
H          -2.67830674915488    0.42559944292918   -0.34737810750729
O          -0.33403982603523    2.67204466178521    1.03167374518522
H           0.46088838373481    3.03696675423417    0.63391257843143
H          -0.83513251416709    2.27647807161103    0.28766107876455
O           0.18872166857478    0.42581724445796    2.27574777884263
H          -0.02062492813785    0.47322029904115    3.20929578931210
H          -0.49889773325417   -0.78803546092355    1.22364487730141
H          -0.04759454238089    1.31140311292471    1.88707113691991
N           1.87692834717916   -2.41211802107408   -0.35583171818425
H           1.65745129512304   -2.31342089971087   -1.33972587337206
H           2.15178144594146   -0.82208011484123    0.12012084214541
H           1.02506632084322   -2.69591460650555    0.11435927627253
H           2.56502432068129   -3.14617273107887   -0.25014643313572
