    26
        -50.47217984  Gyration_radius:  2.38255103815 Dipole_moment: 4.487
 S           0.14900334616733    1.41987002270413   -0.23765558068842
O           0.89542477755653    1.76829412483650   -1.53627913768459
O          -0.77414620054364    0.31227814147872   -0.52438096972308
O           1.15165846798267    0.95786263778778    0.74867696565361
O          -0.54972351183608    2.59133649317179    0.22108288741408
O          -0.57195145971552   -1.99262818223840    0.82805069505923
H           0.35081800622253   -2.20361613705131    0.62536330467483
H          -0.79742787896456   -1.28711732086987    0.18787647860738
O           2.07032277377962   -1.40526553125768    0.17891350357026
H           1.76818600765170   -0.48929229774954    0.41185552358727
H           2.99185800739521   -1.45798540501513    0.43696622979707
O          -2.47832403941010    1.45272930432444    1.54451086273581
H          -1.84302455838703    2.04509530326680    1.07126096495307
H          -2.88082781900145    0.92553392571307    0.84922300422951
O          -0.82011877775969   -0.80103084581731   -2.93558355086587
H          -0.92272952711699   -0.39823110995896   -2.04769744240682
H          -1.16729946484437   -0.16432496173611   -3.56212701953508
O           1.78067937131157   -0.47515708435045   -2.38338966142256
H           1.92832016867115   -0.99714136650986   -1.57361984560207
H           0.92879713897684   -0.78628170088287   -2.75605143065034
H           1.32010742438464    0.92016918494378   -1.89856950653469
N          -0.50455637066885    0.00669858237104    2.51697640336445
H          -0.31466798465922   -0.04015995417321    3.51185145438501
H          -0.59094718074869   -0.94798172245545    2.05416817161780
H          -1.38640452839107    0.55899366482149    2.29646972573305
H           0.26697382196958    0.48735224462649    1.97210795973182
