    26
        -50.45989263  Gyration_radius:  2.45059497495 Dipole_moment: 8.204
 S          -2.04185806626733    0.12186096676352   -1.28524751031754
O          -0.78146010165574    0.49138502276241   -1.97757224714694
O          -2.90739330151232   -0.67711044704051   -2.07794006102355
O          -1.69582140626294   -0.48331783740516    0.00842295432016
O          -2.75124411186786    1.48430829508193   -0.95056305399538
H          -2.10222363177801    1.99892522921454   -0.46820230888522
H          -0.75695788336979   -1.71350763871425    0.25888195997547
O          -0.06147469121450   -2.42640157316843    0.34673585805994
H          -0.53573531515778   -3.25806681796496    0.31200185781779
O           2.38643730358589    0.74675420231809    0.38061556803151
H           3.27791770905335    0.93506845843122    0.67472444573161
O          -1.01095284387402    0.97276370782966    2.13860819259557
H          -1.45377654957458    0.39154620136669    1.49205225531422
H          -0.67563020738006    1.70577187759816    1.59973122352634
O          -0.02495647704194    2.22051003864830   -0.13315711934537
H           0.89442655967021    2.00265897767366    0.07204307959267
H          -0.24077518844753    1.67595873106904   -0.91497309157115
O           1.13261249485477   -0.58402670480328    2.19260824215754
H           0.34575145771599   -0.00645970800215    2.36185666435858
H           0.77607310321029   -1.37535318435190    1.76760814381880
H           1.93342295895029    0.26279556685114    1.14468893406793
N           1.28621209369568   -0.91494136738245   -1.40445811229759
H           0.41852230997169   -0.34964671074995   -1.72604095042745
H           1.80361745216571   -1.26914684225161   -2.20092652479333
H           1.86589128617808   -0.27082906309261   -0.81345958122580
H           0.91937504651253   -1.68149938073651   -0.79803881838718
