    26
        -50.46827157  Gyration_radius:  2.47323929403 Dipole_moment: 4.492
 S          -1.57602749356608   -0.28175558921534   -0.63136938759773
O          -0.73192284398570    0.82664599053155   -1.13017688322183
O          -1.97751638017563   -1.16310959242287   -1.69791911339206
O          -0.84686840468316   -0.98423493589340    0.42941948722095
O          -2.85066515238620    0.34234682021461   -0.01736770727215
H          -2.59330067956314    0.86898667905432    0.79125339506115
H          -0.08330232490138   -2.76188358127071   -0.44625327928756
O          -0.00642214136257   -2.82292075700641   -1.40675713033856
H          -0.84914260068185   -2.40706375624052   -1.70539806188935
O           3.04201606120166   -0.44553757855446    0.22929975196355
H           3.38970830257713   -1.27750940877695    0.55524602228079
O          -2.15771023233912    1.86743116384828    1.96838433915897
H          -2.78443872058623    2.59315293826110    1.98261301894008
H          -1.31196565219711    2.23407589639354    1.58636442071081
O           0.05087397116149    2.54207779137821    0.74358564363150
H           0.64789434644883    1.92221758732681    1.19188017172062
H          -0.22344885345570    2.06704960908396   -0.06796950700470
O           0.98017048020259    0.17770582639612    1.81903026718071
H           0.25624178767958   -0.26236629959478    1.28926821857423
H           0.73359409273102    0.05865749259990    2.73752373922296
H           2.38443667555492   -0.14219500133578    0.89068602927644
N           1.32464432848100   -0.58575737357742   -1.84165465883139
H           0.52450881562495    0.08639755036696   -1.61058689401666
H           2.07937362031532   -0.48245679851943   -1.12092894980304
H           0.89997413916772   -1.56071726267931   -1.76250391282717
H           1.67929485749142   -0.40923741018281   -2.77566901942399
