    26
        -50.46942756  Gyration_radius:  2.4403623052 Dipole_moment: 3.759
 S           0.34843549289836   -1.36923202345682    1.07016477932787
O          -0.57035516382899   -1.37589573760074   -0.09374051949578
O           1.40197146592080   -2.33779651383140    0.90997335058832
O           0.86336212577214   -0.01400789055444    1.26216453423489
O          -0.49633542247161   -1.75519330998559    2.30776548065701
H          -1.23882965486093   -1.09861430553419    2.37221640520872
H           2.85602732713119    0.03778740744567    0.31526123968716
O          -0.18948236823560    1.67134581442805   -2.30132551938554
H          -1.12062126233243    1.44773014989172   -2.18732492288668
O           3.04337046040476   -0.69348057379143   -0.28369238219812
H           2.63944349651722   -1.46391231394603    0.17988061734059
O          -2.53802220115188   -0.11220434092398    2.30944021932541
H          -3.32690877042231   -0.65532478253654    2.36062687725094
H          -2.53177238175224    0.28755451161496    1.40511193124759
O          -2.12812342299197    0.75388730288252   -0.17528972828005
H          -1.48665865443756    1.44936658325355    0.04568054071110
H          -1.60153914047098   -0.07427012659076   -0.23498574938947
O           0.12669705676482    2.26679425062997    0.32532487959845
H           0.30803357175985    2.92876176646905    0.99316119464515
H           0.06635439026540    2.09745142951050   -1.46343594062719
H           0.43970731012583    1.40155363449115    0.70408965497073
N           1.03758110896657   -0.68097584328089   -1.99717531002563
H           0.66814926616890    0.27019299107324   -2.26111109162991
H           0.33862625577519   -1.08914951608342   -1.29949053861940
H           1.14104238666353   -1.28108017862246   -2.80834767621970
H           1.94984674775326   -0.61128840489795   -1.45494229611113
