    26
        -50.45745698  Gyration_radius:  2.39281596563 Dipole_moment: 7.910
 S          -1.84826046148893   -0.34990474245456   -0.35873768217668
O          -0.72534876251831   -0.51122290067056    0.57622936695186
O          -2.94205199581522    0.37749307378449    0.20646140208695
O          -1.20630733470658    0.56015105344306   -1.53617781069716
O          -2.14843869412948   -1.59735615723771   -1.02672098890837
H          -0.90731500083949   -2.55662273087800   -0.79720801590068
H          -0.85932321329319    1.39359161654822   -1.09675039698620
O          -0.04676630889285   -3.06105871606257   -0.85733469182406
H          -0.21873145247171   -3.78891584502560   -1.45806274143391
O           2.31038478874285    0.81081972692254    0.18946369690092
H           3.24977049404162    0.92020073150949    0.34280594320525
O          -1.23209279929083    1.65348936478488    1.98836986851986
H          -2.17008240874865    1.85556776754444    1.93729908110469
H          -1.16150646888159    0.78823011031074    1.52806672816569
O          -0.00035863843093    2.45196669354145   -0.25324781962246
H           0.87751011716331    2.05943018563681   -0.14116205916365
H          -0.43682713014215    2.37558797309083    0.62417726500800
O           1.17453816929788   -0.04186007430191    2.36657413534442
H           0.68755374213398    0.67016750901066    2.79586598476801
H           0.49855159826439   -0.51312095644830    1.84523766274815
H           1.91872028450571    0.50172555999508    1.06013431701720
N           1.06432989942208   -0.80497820874653   -1.60286669049010
H           0.15650436997013   -0.27794282930985   -1.71025981330453
H           1.62234051145749   -0.28501689301289   -0.88610549724519
H           0.77981827118854   -1.77052659269216   -1.25057291818896
H           1.56338842346114   -0.85989474927226   -2.48547832588630
