    26
        -50.45283099  Gyration_radius:  2.40943535718 Dipole_moment: 11.161
 S          -2.26593995604510   -0.53481265687867    0.42188587716384
O          -1.22297814259905   -0.04445651687886    1.33546644364628
O          -3.54894484487552    0.04278373903892    0.64590675622533
O          -1.75422256283677   -0.02710890812925   -1.02990599839298
O          -2.19676183005992   -1.97942644222288    0.28366284840088
H          -0.91082425421773   -2.12970740529760   -0.45388630896169
H          -1.72175128002389    0.93215983045871   -0.96661073035618
O          -0.04668543441365   -2.23982756442136   -0.98375968039721
H          -0.31507723705012   -2.72524697995436   -1.76570797060702
O           2.38808481652059    0.27149712798297    0.91023395704792
H           3.28581077464606    0.08847042026795    1.18819822167873
O           0.24407102291894    2.12115838196501    1.37262872933308
H           1.11168110778936    1.69751672690512    1.40974834734959
H          -0.39499004339691    1.38721868025987    1.52470393187404
O          -0.43365455290162    2.37661007793263   -1.10718827792158
H          -0.18361714452781    2.39966467162515   -0.13493474966431
H          -0.69957117461138    3.26471874964277   -1.34474866674647
O           0.81449006408060   -1.60532766903585    1.69363321754198
H           1.81382822846339   -0.46313558794521    1.30290591893640
H          -0.02473557938657   -1.07697981994607    1.69044336848669
H           0.68881721733555   -2.26020321989736    0.99908004394266
N           1.08411692683240    0.10765853125448   -1.41733652612982
H           0.42612098680564    0.90852098382571   -1.45710719019802
H           1.69850602251868    0.22728192559413   -0.57205973551107
H           0.52712967575221   -0.79965367871144   -1.27840344798513
H           1.63709718328150    0.06062662256586   -2.26684836875639
