    26
        -50.45231396  Gyration_radius:  2.52478241456 Dipole_moment: 7.575
 S          -0.97810713562420   -2.29838156758325    0.11235034764504
O           0.49348798145671   -2.39244271936998    0.05622562700462
O          -1.60172215319701   -3.32657914670137    0.87291992281992
O          -1.22537972083685   -0.89180040250611    0.87063380052312
O          -1.53660337564758   -2.04758056385276   -1.21032068837695
H          -1.27489438041794   -0.74543889837281   -1.94907765952799
H          -0.50309129033060   -0.78497179509404    1.51589145251412
O          -0.99814032761931    0.09476288802468   -2.44571943078976
H          -1.43047136419926    0.03750440021660   -3.29867548259470
O           0.17514766514037    2.44510936256597    1.23594558958766
H          -0.00385403877400    3.36069216906577    1.45191945850078
O           0.59589532464405    0.09119511775881    2.58956518050179
H           0.38649630018863    0.98953136886033    2.26886746946377
H           0.23534051702263    0.01318952692255    3.47395143746729
O           2.35393406383631    0.99248754482814    0.44089714262841
H           2.29876758240698    0.37924976235443    1.18246075132415
H           1.67716749724622    1.66789422659172    0.62635404071134
O          -1.76976994272185    1.53029689430977   -0.24069968774215
H          -1.52466366792680    1.26256844227759   -1.14283411885930
H          -1.87376159794715    0.68452526385703    0.22706314588760
H          -0.57006671122487    2.14767417105990    0.63964880582842
N           1.43148909521025   -0.62673349313476   -1.48353327791940
H           0.62438209906934   -0.22550071533738   -1.99608521042414
H           1.85587864382184    0.07931909584971   -0.83265327178409
H           1.03610886487813   -1.44451269910301   -0.84064747051662
H           2.12643007155236   -0.99205827349515   -2.12444787387618
