    26
        -50.44651597  Gyration_radius:  2.56310610033 Dipole_moment: 5.421
 S          -2.17454129000614   -0.24660163232994   -1.17695295909559
O          -2.52630101409831    0.57074606039038    0.08811215264684
O          -3.10644784800204    0.06651745803951   -2.19533886344362
O          -0.75068956763547    0.28698124364526   -1.54353119383148
O          -1.99575330905337   -1.63182030269962   -0.83188513541678
H          -0.86749655262797   -2.12733022793767    0.19737389727432
H          -0.78742781723578    1.28307699399014   -1.40566176750873
O          -0.25046280130284   -2.34942100073555    0.94162116844432
H          -0.66741317998304   -3.06923596042378    1.41907399174917
O           0.98339510099925    1.93074602417307    1.02567427632615
H           1.64518981436552    2.38497326028146    1.54786873637608
O          -0.88801302611106    2.72003792792064   -0.75990643136678
H          -1.74485074728973    2.66649488027187   -0.32450032425492
H          -0.20901400130123    2.61812479651445   -0.06007542567295
O           2.41307276399172   -2.33146968945620    0.20822531605899
H           2.51798083082506   -3.08535411677920   -0.37404734905483
H           1.49412629431676   -2.35878780225342    0.52676645724107
O          -0.81960924771436    0.11939236987210    1.88489606207387
H          -1.88070366892686    0.35691833185069    0.86583148493645
H          -0.46374492914378   -0.76583173566270    1.66997122497454
H          -0.11739800666102    0.77065041474124    1.67708207489335
N           2.11435069550746    0.39363182142822   -0.73782794356890
H           1.31866958551228    0.19651297499033   -1.33691675629356
H           2.86278711646249    0.75154764323466   -1.31686827371481
H           1.48336063429972    1.34542939441735    0.35234992940742
H           2.41693414081365   -0.49592912748203   -0.34133430918059
