    26
        -50.45989248  Gyration_radius:  2.45066425917 Dipole_moment: 8.200
 S          -2.36108348131136    0.07282227354077   -0.50461375044869
O          -1.43731456586867    0.68064407499276   -1.49551186365308
O          -3.39587416693506   -0.69787128247406   -1.09714674556219
O          -1.55876884223484   -0.66858837930639    0.47829592125581
O          -2.99344836920282    1.28222727364412    0.27571515134135
H          -2.25040525286389    1.79206928934937    0.60231689699305
H          -0.52167719182358   -1.80747297880206    0.18686111846931
O           0.20199070130589   -2.44160424264878   -0.08473052036117
H          -0.20726002070461   -3.30741514369175   -0.11105619603593
O           2.32471728820123    0.95234082606340   -0.29549525703990
H           3.24989844962817    1.19827815017236   -0.28036807571366
O          -0.27393505989491    0.52872269093003    2.48909563996471
H          -0.87618883933760    0.00141817354543    1.93118882496497
H          -0.18699001538303    1.36631830325951    2.00865474263796
O          -0.20012694073859    2.19759774078330    0.27461823336365
H          -0.63715918041500    1.75178539129895   -0.47670224470537
H           0.74520461143608    2.05847799777798    0.12682219337181
O           1.84602461658761   -0.76390522319419    1.56291378864647
H           2.18969489803944    0.31310899410650    0.47649890086844
H           1.13235116707962   -0.31096696284493    2.07939105258229
H           1.41258375260429   -1.52051912599685    1.14638087470261
N           0.78101467537123   -0.54737664642102   -1.88548051682299
H          -0.17605029983875   -0.04441304620806   -1.80163384534432
H           1.01566374293398   -0.72105252237343   -2.85620748876255
H           1.48860794820861    0.06607444990331   -1.41331995414981
H           0.68853036500989   -1.43070008539129   -1.33648686043362
