    26
        -50.47217976  Gyration_radius:  2.38255496163 Dipole_moment: 4.486
 S          -0.79840065917577    0.94972962458584   -0.74603399211817
O          -1.26251121432732    0.44254478664065   -2.12168157053741
O          -1.62557713276463    0.28108678480878    0.28366385201729
O           0.60279371872703    0.54606343984184   -0.55937946460175
O          -0.95136537880773    2.38011754346700   -0.70625336709835
O          -1.00796607609730   -2.22742045236898    0.56315433677357
H          -1.79848053347101   -2.72769875308421    0.77134117329504
H          -1.29450231926473   -1.28269392007996    0.46357361432781
O           1.29313569354383   -0.99066761798624    1.52413037398787
H           1.27132561627048   -0.48679715847908    0.68498670790779
H           0.69983532783771   -1.73808816155393    1.36177321405309
O           0.88136719110227    2.96191178475568    1.04584666347656
H           1.65949100148192    2.60045724260164    0.61311227860857
H           0.17421354564651    2.92808152253917    0.35499393782686
O           1.82470354281830   -0.93973826432593   -2.39116014370148
H           1.93795238542729   -0.41683090958683   -3.18627046262356
H           1.47626101155758   -0.32963867733566   -1.70738477482248
O          -0.60981737789775   -2.02878788044847   -2.14155900061459
H          -0.66382655102722   -2.30021798226553   -1.20698648109232
H          -1.07879477695437   -0.55476592978060   -2.17327003532985
H           0.34156738801085   -1.88158418938039   -2.32739915992202
N          -0.22387479408713    0.96983563829149    2.36580277614328
H          -0.96668917051558    0.75288848659066    1.64171704262824
H           0.26516491434508    1.84442580503250    2.00901360603736
H          -0.60470283124537    1.09096427242639    3.29762571678651
H           0.45869747887472    0.15682294509518    2.28664315859470
