    26
        -50.45290111  Gyration_radius:  2.45464734662 Dipole_moment: 9.129
 S          -0.83300186035742   -1.73348892592298   -0.64487723523179
O           0.30118450003649   -1.06583405815464   -1.28132256951817
O          -1.27599172299683   -2.93276922330013   -1.26792745795631
O          -0.54195193580636   -1.87357512342557    0.79842870743629
O          -2.02125336970900   -0.67408590440124   -0.71877820054395
H          -1.56036201899716    0.17959102240043   -0.67959452072249
H           0.66530710634716   -1.02329609798822    1.09104576721054
O           1.46461650817517   -0.45050814571430    1.35247617224105
H           2.13754927677626   -1.07924460071068    1.61635447492944
O          -0.90094402393990    1.78882072727539   -0.33559888190239
H          -1.56507775821814    2.46350389135025   -0.48137017171679
O          -2.45630339307463   -0.67611658789038    2.13305118477925
H          -1.78156239159422   -1.26599790669308    1.72509616324369
H          -3.13984460060930   -0.59327197674796    1.46399223352138
O           1.95417687769797   -0.09507928941989   -2.97884877633262
H           2.60362192828078   -0.77086996994353   -3.18006331802017
H           1.20089190610845   -0.57210049201324   -2.55221936172708
O          -0.65349120648758    1.27156281685272    2.16400170356758
H          -0.83716091093179    1.65086993489932    0.66672341674190
H          -1.39065778330548    0.62794172880628    2.30622811862899
H           0.15038852313493    0.73488240423624    2.19309095383637
N           1.72356914481101    1.24069464869719   -0.67993008491180
H           0.73807978732048    1.57090065095748   -0.73329526086358
H           1.95065375148153    0.77832681114259   -1.60049965504367
H           2.35624920476775    2.00135333824493   -0.45543924121165
H           1.71131447108960    0.49779031747105    0.07927585956422
