    26
        -50.45290119  Gyration_radius:  2.45456632309 Dipole_moment: 9.131
 S           0.47793227222907   -1.97042741045459    0.05892881366968
O           0.84483660189756   -1.05586708476846   -1.02101745107118
O           0.89386822239433   -3.32071125612806   -0.10369696892587
O           0.88564477484704   -1.36227570757479    1.34395543284333
O          -1.11536991692875   -1.94791084033827    0.08634828701812
H          -1.33081777412199   -1.05026367013495   -0.21456186318787
H           1.24828531338214    0.07062739828843    1.05811143202838
O          -1.87708468164430    0.61706272901303   -0.46927565163159
H          -2.82928025720648    0.64816883315855   -0.56846149604025
O           1.48661597849142    1.05135230885602    0.92906018814333
H           2.42388214013278    1.10052320416537    1.12152360174964
O          -1.24754873770372   -1.15303225663856    2.85590800486898
H          -1.85911815190402   -1.74829518874902    2.41610493993898
H          -0.38082515108966   -1.32364436373013    2.42091448665451
O           1.31620926647700   -0.01209056174522   -3.31085669701912
H           2.23352957509565   -0.18235249655050   -3.53109496316935
H           1.09939133263119   -0.64129770000224   -2.57998247156100
O          -1.17912329281309    1.32043522529462    1.89590941195448
H          -0.22145701176691    1.42661283226106    1.81441905339887
H          -1.66936838532698    0.92770078393097    0.47320154385874
H          -1.29703064304032    0.47536313803785    2.39573225438071
N           0.42484792347204    1.65801909765097   -1.42957869455548
H           0.83513546153040    1.12106974519300   -2.23961161544401
H           0.95786578433344    1.40154938073253   -0.54712237386030
H           0.41378954971118    2.66011659314566   -1.58756239131562
H          -0.53481019309643    1.28956727706777   -1.26729482272861
