    26
        -50.47142892  Gyration_radius:  2.45716514228 Dipole_moment: 3.744
 S          -1.64530824852455    0.18014576196326   -0.26850990342275
O          -0.70263464669458    1.17939542950068    0.25595303140894
O          -1.83490788309201    0.30804328063479   -1.68901284114373
O          -1.18122618147412   -1.16328681008844    0.10004179033115
O          -3.00895683836162    0.40786837708296    0.44539377787274
H          -2.76830828520918    0.45146248660327    1.39638761221971
H          -0.27123301921581   -1.65476037814953   -1.24610272582112
O           0.35734010846388   -1.61414824424546   -1.99692368708864
H          -0.14718887527440   -1.22965433256601   -2.71978726836264
O           2.67235673607143   -0.25021150319551    1.49343481733778
H           2.83687416980324    0.42452387830537    2.15397137754000
O          -1.61447176341333    0.63377530269523    2.68956716353285
H          -1.11498133081510    1.11150951240325    2.00571944181244
H          -1.07196124823583   -0.13883896963273    2.89646064786334
O           0.20966147445549    1.55039817742902   -2.92431494621336
H          -0.15326165529339    2.16010583938239   -3.56798832151739
H          -0.56545923607406    1.14500917267018   -2.48752009593911
O           0.33114507310114   -1.40613392691140    2.18491810125028
H          -0.23648363904781   -1.31957819959364    1.37382332766641
H           0.38557825380157   -2.34741371113006    2.36009983797512
H           1.85370067983084   -0.71448607265884    1.77926241311919
N           1.56945279296867    0.46420436878676   -0.85015267796818
H           1.92314018249190    1.13610366024102   -1.52716349437749
H           0.68965496201258    0.86224001915681   -0.41596516070934
H           1.26212311768105   -0.40497244159508   -1.36702814132174
H           2.22535528017564    0.22869933295841   -0.07456407608509
