    26
        -50.45290119  Gyration_radius:  2.4545977311 Dipole_moment: 9.129
 S          -0.29767372534950    0.31773236693087    1.98125161877902
O           0.77184250677755   -0.50656055672281    1.42092120144428
O          -0.34302769404759    0.39415014553461    3.40068948497664
O          -0.27616120145473    1.63286001521762    1.30497139807154
O          -1.64522367173856   -0.37264078683642    1.48392771614626
H          -1.39454334298417   -0.76126396443449    0.63017073602089
H           0.63907182491803    1.50304813628283    0.11722968755623
O          -1.17772224985689   -1.27733478935672   -1.05188301767370
H          -1.92928320340380   -1.79366362095001   -1.34523411502616
O           1.23014502142040    1.46913428416577   -0.71040559189418
H           1.95832507812308    2.05953774247715   -0.51260577057780
O          -2.62842943814420    2.02208322315051    0.21125407008425
H          -3.16697503447736    1.37058262914608    0.66657403403112
H          -1.77619441346332    2.02634564444242    0.70444759117194
O           2.47649767284364   -2.36613852045525    0.98237732287963
H           1.77494707649826   -1.79494805976256    1.38058370516230
H           3.28258473876980   -2.14629367096831    1.45237378708034
O          -1.32514709569426    1.13045476676700   -1.92187772950673
H          -1.92121095953609    1.54620939829411   -1.25120165672148
H          -0.44723986397720    1.48417992610437   -1.72381978347681
H          -1.28543260194595   -0.35030297731666   -1.44799844138311
N           1.51808990277129   -1.12950957017665   -1.18003323746581
H           1.51446518257126   -0.09525963615349   -0.93672437178116
H           1.91748314225735   -1.30164204142070   -2.09663451699944
H           2.01543305173055   -1.65492983308695   -0.41241951595780
H           0.51537931752099   -1.40583025094807   -1.14593460495736
