    26
        -50.46282424  Gyration_radius:  2.47234294712 Dipole_moment: 6.203
 S          -0.59678299177636   -1.33385465710049   -1.25104276719273
O           0.05669494995686   -1.43234163423242    0.06377542650186
O          -1.63402886788904   -2.28824047024503   -1.45616880614513
O          -1.02421494597823    0.06455695052695   -1.46283807081514
O           0.54868152663203   -1.58773637875668   -2.29906353568053
H           1.27748375404969   -0.99949349983493   -2.02448866337141
H          -2.34266933143078   -0.13097837562895   -0.34809143616225
O           2.40976763006540    0.26377406437447   -1.56947527699191
H           2.90329945588866    0.50525506387806   -2.35560647259359
O          -2.85800576486821   -0.53861567404204    0.36910652486362
H          -2.86382246377245   -1.47105967597958    0.12764727136930
O          -2.07413063957648    0.56406927673775    2.68614724422338
H          -2.47546734357085    0.20333598492121    1.86258484368548
H          -2.23604514760662   -0.09286203793735    3.36506294943450
O           2.55703783170919   -0.70375975808842    1.14669211945502
H           2.87337867025439   -0.38518745126536    0.29367600240229
H           1.86434732088310   -1.33924518429352    0.91961591257978
O           0.47211531719968    2.05441521295479   -0.99169179484835
H           1.80892762433689    1.01118475507070   -1.36440483586810
H          -0.15416829678921    1.29593303214032   -1.21533869490300
H           0.15971439445033    2.80685059568112   -1.49607992936883
N           0.26854035467094    0.74317760369027    1.42804862679744
H          -0.53749312647929    0.82620242610046    2.08852120860380
H           0.09826661886031   -0.14847205859185    0.84399633853362
H           0.31849282604431    1.53016504207713    0.76938001732365
H           1.18008064463574    0.58292685757629    1.87003578828541
