    26
        -50.46052542  Gyration_radius:  2.47391228147 Dipole_moment: 8.478
 S          -2.00828604686837   -0.00769078372746   -1.04922065137187
O          -2.72470498770954    1.23135374119846   -0.96196649203444
O          -0.64413430097580    0.12940376911768   -1.58903402826517
O          -1.99915428339302   -0.82771421060337    0.14303873811289
O          -2.78030685715816   -0.86824891086358   -2.15547171855296
H          -3.36177270621427   -0.21638810649600   -2.53386433626063
H          -0.98120637384902   -1.65777456246448    0.99230885329651
O          -0.25552155299300   -2.17756945324836    1.43716164103540
H          -0.68759126811244   -2.91384528953127    1.87176344082757
O           2.63519792224362    0.49226058178591    0.49165430381306
H           3.48015662906640    0.62774717838618    0.92076023291106
O          -0.88812697790688    1.97606123227951    0.88044985768407
H          -0.24632440842011    2.37013891455011    0.26014978723157
H          -1.66573250761204    1.76256423787666    0.34473376020964
O           1.00964265204215    2.27257289608506   -1.08106710446722
H           1.71127171530993    1.78779298387477   -0.62659371183794
H           0.42447578206845    1.60113199982401   -1.46498826152711
O           0.74053149592198    0.36601895753945    2.23008493057539
H           0.34827470814544   -0.51516956685721    2.16900607618851
H           1.93722556517478    0.51784246571663    1.22241254045718
H           0.06707854889378    0.98399263273618    1.86134931984499
N           1.19956393275684   -1.41371478377374   -0.68299202498042
H           0.40957878690751   -0.80200228999948   -1.10591958960383
H           1.92498711822429   -0.75221803333964   -0.31563356380224
H           0.77627475596092   -1.92105583943820    0.12091469781955
H           1.57860268847136   -2.04548978063085   -1.37903667732291
