    26
        -50.45699511  Gyration_radius:  2.42432964005 Dipole_moment: 8.044
 S           1.06743286500941    0.64163178798544   -1.85952199855570
O           0.96471661455623   -0.78253226748596   -1.47725097503700
O           1.00438974277699    0.87414316195887   -3.25913841796424
O           0.04990859073273    1.38241164596656   -1.08323788020574
O           2.45548395573326    1.11962728759628   -1.30896824680040
H           2.47764253837246    0.77300081685941   -0.39380823175958
H          -1.29042596070743    0.59519172401443   -1.09752298591216
O           2.39382181294477    0.35647451903663    1.27471033034581
H           3.18839674270077    0.76774369337405    1.61871786168259
O          -2.16665028111948    0.11816060738662   -0.99184977490067
H          -2.75971516134683    0.53901735239450   -1.61596052009956
O          -1.26100180841518   -2.53723810941770   -0.98783846308548
H          -1.78274741652635   -1.72112607751465   -1.05869905617462
H          -0.50571129452103   -2.37943536243053   -1.56815087718889
O          -1.88593689574854    0.25708242065970    1.66414856256008
H          -2.12274631830891    0.29304063688212    0.70956898871154
H          -2.65780036073677   -0.06982010460210    2.12795685478888
O           0.35455276917321    1.98224114606342    1.45048822018435
H           0.24331422265472    1.94329938259586    0.47249965848468
H          -0.47283400844048    1.63611477169926    1.80463590762069
H           1.65285478844281    0.99376511023456    1.46348869024745
N           0.21481543087673   -1.36150525763414    0.87159035298156
H          -0.34842093505716   -2.16906480396583    0.54256484466507
H          -0.41751506265467   -0.66756204373912    1.30489492914241
H           0.98861520399081   -1.59822256342554    1.48361206938350
H           0.61556020561519   -0.98643945449287   -0.08692983311743
