    26
        -50.44479917  Gyration_radius:  2.47139135332 Dipole_moment: 5.992
 S          -1.34416820572823   -0.64334692162401    1.35855779662157
O          -2.07672984754066    0.16114409592239    0.41779777216789
O          -2.01948402021386   -1.06559011748579    2.52761142880393
O          -0.72215080709886   -1.83086895580379    0.59560405398889
O          -0.07672484473778    0.16649054269479    1.81450385599557
H           0.67508671762185    0.06966356334914    1.15682764504091
H          -0.78942854521520   -1.56586105613328   -0.40169940015789
O          -0.93635581321318   -1.07118848373839   -1.79100935794699
H          -1.81365998140171   -0.67957592680649   -1.73259798236088
O           1.93714627404930   -0.12224188388242    0.23001417205229
H           2.73321678480104   -0.10337726036489    0.76397285825576
O          -1.15320737574725    2.50664690643901   -0.59680914280426
H          -1.66677373975863    1.74244080773414   -0.28502787045829
H          -0.79910633870882    2.91388185096334    0.21068339831675
O          -0.40888435440626    2.93991518434745    2.04102216956635
H          -1.16125651693390    3.14294759697116    2.59967345699562
H          -0.24134462726679    1.99106729653161    2.13515425040536
O           0.58479037454676    1.01718085525189   -1.93064343155635
H           1.25737298923942    0.87143524232813   -1.25398505114152
H          -0.31626234848623   -0.28454876727733   -1.92620317204292
H          -0.02705406344265    1.69795510148144   -1.55749820418391
N           1.70807147382222   -2.47609191053151   -0.92848374922424
H           1.15671412865720   -2.29252976232754   -1.75915425709157
H           1.88792554736506   -1.03278575249288   -0.20824423933117
H           1.11789162546702   -2.99583022757986   -0.28900418083977
H           2.49437553433253   -3.05693200797240   -1.19106281907006
