    26
        -50.46365331  Gyration_radius:  2.41779257873 Dipole_moment: 9.112
 S          -0.91741277189843   -0.53974675656765   -1.67401889265096
O          -1.22995995521052    0.52648929554945   -0.72313577633694
O          -1.17606388217027   -0.22674669885031   -3.03685945550062
O           0.48010580806587   -1.00212483044473   -1.44942604486547
O          -1.80987336015192   -1.76241465425287   -1.24004404098029
H          -1.64856802051146   -1.87462850649445   -0.28541353769264
H           1.19827388683083    0.27582581989384   -2.39551923209702
O           1.25790355410126    1.34226103283633    1.76641506615850
H           1.94242377905782    1.87355907460535    2.17412111162700
O           1.33955085841110    1.15059240378680   -2.79374112075450
H           0.61245287286815    1.23743172836714   -3.41714402941385
O          -1.34632666359010   -1.97715182618975    1.46221859195941
H          -1.49610765281049   -1.01613561119142    1.71404638388619
H          -2.06894459093242   -2.47545637083207    1.84687385086449
O          -1.50268508558327    0.56841217665124    1.88968768859447
H          -1.57320141108010    0.70384610658620    0.92018285373867
H          -0.65634371080838    0.97004412904606    2.12830997334774
O           0.62185670655856    2.38903342258118   -0.49663752916914
H           1.12974005034856    2.16205827555907   -1.29939987544059
H          -0.20024406511708    1.86831502867791   -0.60928082284667
H           1.04380326241261    1.79566112213194    0.88693755953593
N           1.22330585275446   -1.20825073277540    0.95583550570851
H           1.31927838078891   -0.23941285212782    1.34736668051471
H           0.93680664277491   -1.10859807805746   -0.11163216378615
H           2.08561557670043   -1.73416877101131    1.04274700302687
H           0.43461392820007   -1.69869391747887    1.39751025257788
