    26
        -50.44592087  Gyration_radius:  2.58163433719 Dipole_moment: 6.944
 S          -0.25297678489159    2.00293887402685   -1.68739630154270
O           0.93154257525656    2.17019542449124   -0.87318819567364
O          -0.28127977385309    2.69274270921770   -2.92144704410400
O          -0.45365407741727    0.46468700018926   -1.88604257918412
O          -1.50189115329878    2.37323926823279   -0.86602249598974
H          -1.54075565149264    1.83311507614930   -0.01478986770789
H           0.48149757527266    0.07241656923494   -1.90817937673728
O          -1.71155152633647    0.92095914832594    1.24569130227156
H          -2.54159002018618    1.14144572499773    1.67139962975570
O           2.12897515459824   -1.11882389114220    0.84132995490253
H           3.00358584623687   -1.15727280215438    1.23122157744241
O           0.11689742987571   -2.99386052454060    1.05554499025865
H           0.21617329103447   -3.34938677109173    1.93962281089807
H           0.86951503119259   -2.39326775670777    0.91264165060955
O           1.99329935158489   -0.17450958505867   -1.69663393591972
H           2.08161736516621   -0.66481059428509   -0.85105232282834
H           2.14855353485697    0.75598349318568   -1.47866287356320
O           1.02196881700561    1.11682782883747    1.58143838942362
H           0.06960728850552    1.01942458467723    1.72724593616048
H           1.70152373022559   -0.28473411580317    1.19301483667039
H           1.09168844248308    1.63306415891869    0.75410149739640
N          -1.95616935695782   -1.30211880193687   -0.02233935401258
H          -1.30396405814949   -1.99759538389116    0.34173670027779
H          -1.61694611743752   -1.01220307339764   -0.93400848792337
H          -2.85694476622368   -1.74616888540864   -0.14352569365590
H          -1.83872216694201   -0.00228767515198    0.78829924277030
