    26
        -50.44547065  Gyration_radius:  2.46737899085 Dipole_moment: 5.728
 S          -0.56365404545668    1.72696709936663   -1.32061325715565
O           0.21126507706246    2.19778678537911   -0.19472862796137
O          -0.02813684393212    1.99924212311402   -2.60696502628676
O          -0.76473327286640    0.19068193145421   -1.15934300612627
O          -2.01270795598371    2.22422890821185   -1.18182261709981
H          -2.23865489705611    1.99837756953367   -0.23108566631396
H           0.09069521237658   -0.26023404331653   -1.47012463361238
O          -1.09492765882745   -1.07645762493151    1.63080161978288
H          -1.54559218538050   -1.67206920110659    2.23191171300234
O           1.49697363973063   -0.68999875542928   -1.91638521832157
H           1.64325284069103   -0.16695423390947   -2.70905721598577
O           1.38502354395265   -0.14837494134277    2.33700583748128
H           1.23870210720463    0.65471282840262    2.83988293883171
H           0.50319871328681   -0.48974908923144    2.09514873425155
O          -1.91985020435179    1.53090888298895    1.29191509891816
H          -1.77421738266297    0.56906736663332    1.36902733639506
H          -1.03469382898133    1.91003448878497    1.18039597330489
O           2.47410831347064    0.72180922276665    0.00387114848452
H           1.82155369655486    1.43969677916830   -0.06965537100519
H           2.27184935858182    0.29684092035310    0.86186586709141
H           2.01325239288247   -0.22586024488151   -1.18587616585742
N          -0.40017808121810   -2.65831753363742   -0.41927365211503
H          -1.06779322969687   -2.45405274804283   -1.15273651493138
H          -0.85444116598036   -1.61243981107279    0.82432274858853
H          -0.35592482577437   -3.66310336648020   -0.30042173442585
H           0.50563069238287   -2.34274330280357   -0.74806028894236
