    26
        -50.45660593  Gyration_radius:  2.60074485794 Dipole_moment: 7.127
 S          -1.01193226199295    2.38587023829983    0.90008801195771
O          -0.70735373326431    2.15729193580745   -0.51439096564183
O          -1.10717859782759    3.75840125800227    1.27502479000130
O          -2.49498162859212    1.76875400237622    1.09898805704240
O          -0.17836353641945    1.53639852423290    1.73906106952209
H          -0.88099945314916    0.16982290144406    1.67066096914461
H          -3.02732232154956    2.53890810111677    0.93385405030322
O           0.68836534541474   -0.92322701027601   -2.42252331423533
H           0.50723698959014   -0.84330188608516   -3.35912936824116
O          -1.15480898974878   -0.79239280936800    1.58641376992786
H          -1.93710028480710   -0.88167421137446    2.13161214143773
O           1.66293954272092   -2.83714381536952   -0.81339434186790
H           1.41129476456006   -2.20486991715507   -1.52044249794959
H           0.97110560478688   -3.50057955133471   -0.78961556242391
O           1.64952668639194    1.02522959840296   -0.69672390806084
H           1.49475497639474    0.48187619048128   -1.48872866699359
H           0.83342845938387    1.57002034276785   -0.59230482012173
O          -1.45739317831168   -0.29414487175182   -1.10907987453177
H          -0.17583186156914   -0.72294638450349   -1.95195186184455
H          -1.48497901704859   -0.65403580707473   -0.20668654920000
H          -1.29520792365540    0.66744239234706   -0.97780139555145
N           1.55003820185990   -0.89699212565467    1.04429358575338
H           1.60670420952147   -0.01434308497077    0.40435954540787
H           2.22483227530753   -0.81772702327562    1.79653349267360
H           0.59173639214267   -0.94376294930020    1.42466775199862
H           1.72148932963775   -1.73287404772641    0.43721589160452
