    26
        -50.45207862  Gyration_radius:  2.41627743277 Dipole_moment: 10.169
 S          -1.69651071042320    0.95153954123878    0.75989538736415
O          -2.19020022330396   -0.33527994224364    0.29983014275445
O          -2.62849949039878    1.83699614142736    1.36293729471613
O          -0.60084687056896    0.60463067506955    1.88263319388387
O          -0.89146251738707    1.59395967201946   -0.31211907529013
H          -0.15089893451578    0.96304164188055   -1.49740301850843
H          -0.16384367283019   -0.21373290746832    1.59469050494907
O           0.49192135044502    0.60149962555637   -2.18756920850746
H           0.51744639797230    1.26039531465133   -2.88304798077793
O           0.92140655363939   -1.55906323033303    1.22621427974852
H           1.15101192126725   -2.00679446028881    2.04146894585780
O           1.12706621517371    2.53648181732375    0.95019795993630
H           0.28435816251170    2.35490646519482    0.44710962741344
H           0.87074326398542    2.43750661656119    1.87152679202341
O          -1.40353385944893   -1.50852780529449   -2.05957430964561
H          -1.88033773821118   -0.99745228505595   -1.38142663088982
H          -0.68674393127119   -0.93325721392252   -2.35186449994726
O          -1.11077919541841   -2.77794335222994    0.30370985766286
H          -1.73010100587054   -2.05718791966263    0.53291462794573
H          -1.10477291667884   -2.73478138938509   -0.67131111774120
H           0.16986370900013   -2.11090390056414    0.81051416348994
N           2.17377559948661    0.40831351773893   -0.14785798083035
H           3.17900193841376    0.36599850441860   -0.27429921920291
H           1.66255986855281    0.43488420930200   -1.07180784055215
H           1.82110571748287   -0.41668064938186    0.37922982986458
H           1.86827037777793    1.30145131368200    0.37540825431816
