    26
        -50.46434394  Gyration_radius:  2.49859665459 Dipole_moment: 7.189
 S           0.46728304841175   -0.71896925345202    0.52662244926072
O           1.73115403731556   -0.30144917283414   -0.04195832799858
O          -0.22052236632330    0.38627960375311    1.19522124726404
O          -0.46571528061197   -1.21886084881085   -0.60718397400376
O           0.59065195048510   -1.87525184300406    1.42072213127877
O           2.16014086556059    0.43024402107302   -2.63287654856380
H           2.51543730247046    1.29989039224711   -2.42264309035230
H           2.16169068388278   -0.04972248453318   -1.78708836294410
O          -2.53271998150979   -0.26241854469250    2.17004427827048
H          -2.54065455052490    0.04211365176354    3.07905374316192
H          -1.69088454910767    0.09000647582445    1.77580424091466
O           2.47884870767654    2.25235402288850   -0.29969570906575
H           2.26157416106970    1.31275545114176   -0.12378545613290
H           2.94393482928406    2.56980873219267    0.47496980500284
O          -0.26346761914992    2.45645009001699   -0.51984787237548
H           0.68419655311363    2.66989399291498   -0.54918115835995
H          -0.34707995976328    1.81102507992855    0.20616149604543
O          -0.49513567207609    0.56659313918457   -2.34019826542533
H          -0.53272843093714    1.38398813804758   -1.77850601763314
H           0.42788350030720    0.52520975863954   -2.68067460171481
H          -0.51094775108990   -0.48640182911505   -1.36683688635622
N          -1.80004559226912   -2.61675458075194    1.26790886542490
H          -2.09282281147814   -3.50349097105048    1.66460909819828
H          -1.94083963890282   -2.58145597767344    0.25850667108893
H          -2.28143500827907   -1.78327628317098    1.70795221557875
H          -0.70779643754695   -2.39856076052767    1.40290001943726
