    26
        -50.44670483  Gyration_radius:  2.54299148009 Dipole_moment: 6.457
 S           0.18809449847110   -0.78933365106601   -2.36011479382503
O          -0.49119161604052    0.39818539388323   -1.88432462437650
O           0.45326354918750   -0.86449142921380   -3.74664347738534
O           1.50075869475930   -0.92641691265978   -1.52251465065554
O          -0.59635952708024   -2.03789161366846   -1.91910882442277
H          -0.95509278171736   -1.94673473183204   -0.97896187902983
H           1.79213009291528    0.02683269020525   -1.34136141820823
O          -1.63226587548702   -1.82427090827595    0.42864444041711
H          -2.38602270879851   -2.41759637665219    0.43181848751671
O           1.34789187601707    1.29356851017724    1.64322145846733
H           2.00424392629936    1.48173378592802    2.31513051551203
O          -1.19260570571717    2.30022282887736    1.57746507519266
H          -1.11290566270075    3.17590737167984    1.19617187842490
H          -0.28756102031771    1.94674454730475    1.66249182734056
O           1.76893357184467    1.54648662930205   -1.01906209809901
H           1.67614812253436    1.57876418566524   -0.04373851956511
H           0.86941637942570    1.60148785799654   -1.37729589958822
O          -2.46675638668449    0.54430259678598   -0.05651025550172
H          -2.12917352789799    1.18351732284359    0.60349032189490
H          -1.88605364942670    0.63697643461446   -0.83286171125775
H          -2.01450517010342   -0.88940512690558    0.33029664677364
N           1.11597288848244   -1.31454206902605    1.40201571811532
H           1.50219982827418   -1.49098133680412    0.47919056467652
H           1.24692937912431    0.28836638346211    1.60535368836212
H           0.12894050219628   -1.54974454902372    1.35302665917492
H           1.55557031196933   -1.95168785313240    2.05418087006432
