    26
        -50.46682993  Gyration_radius:  2.49413865865 Dipole_moment: 3.698
 S           0.69500648548817   -0.16186917092890   -1.99390977341288
O           0.91824097564512    1.09530591905055   -1.27401359309988
O          -0.64477052957081   -0.24495938190852   -2.52713898926939
O           1.66540627974635   -0.11980825988905   -3.24909723129573
O           1.10503585782571   -1.30232656802722   -1.20214639105098
H          -0.49488663703234   -2.71966797420508   -1.19525347394048
H           1.15132826808774    0.39389890279559   -3.86324224866981
O          -1.40362163521951   -2.40606691183978   -1.26515899880313
H          -1.32262278480807   -1.62177982546441   -1.85006983374095
O          -0.32948855845739    2.52712127554530    2.19809928064136
H          -0.86508826152227    2.25073292517367    2.94310247346442
O          -1.76386710341741   -1.14826363829374    0.99548495801738
H          -2.59546549828297   -1.41582113735562    1.38926820265711
H          -1.68896577438783   -1.65921479026074    0.13971939747454
O           0.92872480812055   -1.43016481082579    1.44708196377933
H           1.10148977573991   -1.55776338110162    0.49051597244472
H          -0.04208247493935   -1.39356914994607    1.50976112192858
O          -1.44170325702631    1.44970344031471    0.07950312400511
H          -1.64203947487994    0.53860298575111    0.35677167364076
H          -0.84035105872964    2.27356320276721    1.38255787146317
H          -0.74164869577970    1.37912578740949   -0.58908851174482
N           1.67685024346151    1.06697569457127    1.23455003790231
H           1.47465536260701    1.13995336511698    0.19600889771264
H           1.45742075561381    0.05121913374047    1.48380266376485
H           2.64030988328978    1.30999763780943    1.43299912532115
H           1.00213305843768    1.70507471999385    1.72989227081153
