    26
        -50.46682986  Gyration_radius:  2.4941036641 Dipole_moment: 3.696
 S          -1.86016389788038   -0.99872610169281    0.16314862935973
O          -1.46378290527840   -0.46527030249686   -1.14334243548384
O          -2.41239871900184    0.02688601291808    1.01728356139782
O          -3.04499217615525   -2.01451684899256   -0.12529494625315
O          -0.79467344820444   -1.77653975250094    0.75964256168913
H          -0.50671040439493   -1.08877308000823    2.75916715965207
H          -3.78820448914389   -1.42253530238845   -0.17475518695894
O           1.48932880889886    1.86554351633328   -2.37307451398997
H           2.25541747326947    2.31320904860604   -2.01122059730538
O          -0.69051827058287   -0.16768162996817    2.97593091558423
H          -1.44709620852430    0.05036359327231    2.38959981721524
O           1.79369714042526   -1.25712978181355    0.44944654910022
H           1.80330910225442   -0.39507882268017    0.90170101213945
H           0.90657708924536   -1.62248836461974    0.65125748390924
O           1.17074766962040    1.11986755470931    1.67220312599110
H           1.58132317942139    1.76929755342778    2.24477943011430
H           0.47214927443492    0.66846121327543    2.22656449613081
O          -0.34313511692332    1.95415335928792   -0.49671423880723
H          -0.94270552423442    1.20997571951480   -0.66633803550796
H           0.14140939183938    1.72953325323721    0.31685179963052
H           0.74051304652704    2.04892219809037   -1.74383006552402
N           1.00459736029857   -0.72322306417027   -1.98616248224832
H           1.17878091080912   -1.40108835168591   -2.71886468815633
H           1.48699640890836   -0.98683950297223   -1.06971119500440
H           1.29712088489752    0.24641731401933   -2.27235229104618
H          -0.02758659052803   -0.68273943071273   -1.74591586564367
