    26
        -50.44890325  Gyration_radius:  2.42416946854 Dipole_moment: 8.954
 S          -2.06446016061471    0.04274075275679   -0.78385691143689
O          -1.22387889891370    0.49792244520664    0.32809979098509
O          -3.32461475673754    0.69452461878525   -0.88069886320861
O          -1.17936378533547    0.43432550206724   -2.09758191873539
O          -2.07789033025016   -1.41375208627123   -0.83786085343752
H          -0.97874545960451   -1.94475225500540    0.07211843232916
H          -0.83770561529561    1.33660144103318   -1.87700466499372
O          -0.13431918643906   -2.32508537796881    0.48192484805744
H          -0.31856313939249   -3.25002652066318    0.65247151835733
O           2.25308544871993    0.87113337345255   -0.17837698786663
H           3.18326043729954    1.03521757268123   -0.01893650361102
O          -0.69965352230623    1.15878827537982    2.83885086170276
H          -1.39889153515057    0.85933097350859    3.42127993548802
H          -1.02099084510715    1.00535970860359    1.92813658286667
O          -0.01306609936411    2.44942552993339   -0.93269476643480
H           0.90388112710945    2.18710343882235   -0.77109069209852
H          -0.51378968191314    2.01955362086052   -0.21392502711454
O           1.33529824734360   -0.35324473720118    1.89731956371661
H           0.72367698278367    0.24483525628507    2.37286884077312
H           0.76555919049343   -1.04641394440024    1.52965851025728
H           1.88828485825962    0.48258631138799    0.68151231914818
N           0.96680141921572   -1.01260763807740   -1.54297151396792
H           0.08523098754767   -0.52361892208374   -1.86351487110279
H           1.59215883467028   -0.27725153959762   -1.11694108321428
H           0.67340061025444   -1.67371570025129   -0.77648336305132
H           1.41529488271968   -1.49898010924338   -2.31230319340443
