    26
        -50.46434394  Gyration_radius:  2.49858185979 Dipole_moment: 7.188
 S           0.48553798057665   -0.25197739051655    0.84470788583505
O           0.90915484899219   -0.13988706344317    2.24456903748824
O          -1.06283664232337   -0.29850387156382    0.92349378153551
O           0.84311323000856    0.95204030327516    0.09359983008844
O           0.96875267470589   -1.45335096704764    0.19802964370144
O          -0.05794296595100    3.14272929637859    1.14555064405276
H           0.27241474407498    2.35296342650415    0.64010920596778
H           0.68596788125640    3.74495368265099    1.20063021319986
O           0.11178355739208    0.54794945437228   -2.46196949256291
H           0.41967628064491    0.85844517272476   -1.59049200473929
H           0.73882956023164   -0.15290401011219   -2.70721018820556
O           1.93022578848129   -1.51996311445082   -2.29569656005022
H           1.67210682281037   -1.49434346339819   -1.35031684514417
H           2.87407831344660   -1.35971472278894   -2.32064613800080
O          -0.46917760794404   -3.07161848104258   -1.45901740658255
H           0.02407555247546   -2.71654564256997   -0.69985879958796
H           0.13981664456384   -3.00351648089889   -2.20142727972182
O          -1.87493785571798   -0.79762875077397   -1.37504758417885
H          -1.55974346836882   -1.72230665039824   -1.49841183564328
H          -1.45248959955908   -0.50512257638018   -0.03625257805343
H          -1.26729370780346   -0.23641749637247   -1.92354255343087
N          -0.89354390776285    1.44651793835090    2.96716727663801
H          -0.64768718750436    2.28891685323419    2.37558983415091
H          -1.71281181423799    0.99141880194058    2.56510121491208
H          -0.05437105726081    0.72750942532584    2.77305682722567
H          -1.02269806522837    1.67035633700762    3.94828388110933
