    26
        -50.46047171  Gyration_radius:  2.37990609404 Dipole_moment: 7.199
 S          -0.58248578661118   -1.85963795398648   -0.45795854745843
O           0.53691198678741   -2.65039109194243   -0.00326052059026
O          -1.33689956624917   -2.34101208017329   -1.57326140738594
O          -1.44631971345203   -1.43395771432586    0.66487691277010
O           0.07212767186347   -0.47349267304858   -0.96415919028316
H           1.02429026811115   -0.48732075773233   -0.74262164748087
H          -0.92206440861674   -0.34121550674316    1.57024013873575
O           2.64810034422910   -0.12775847147631   -0.30826978240124
H           3.22230345830233   -0.79290669356140   -0.69178856016157
O          -0.58770078178038    0.44862752234326    2.10795754095932
H          -1.12044404998484    0.46166774221417    2.90474948629300
O          -2.61427901353120    0.07316909495914   -1.08726361326212
H          -2.39273254540879   -0.54000842698861   -0.34988711189689
H          -2.36098519429299   -0.45582190891867   -1.85316561732748
O           1.34200398795694    2.04494487123744   -1.42046345692279
H           1.94241498923678    1.45543134499599   -0.93218850322601
H           1.16653871194356    1.59402223569974   -2.25024416387193
O           1.71516115002088   -1.18963848961496    1.85037064169653
H           1.01319594837150   -0.59970951029323    2.15877087589696
H           1.27379682291291   -1.87550993036797    1.29673844464725
H           2.43689224384281   -0.45802564648307    0.61461427816991
N          -1.01161775414588    1.93785704168618   -0.10635694469754
H          -0.09756487624273    2.01409193471204   -0.62454779955540
H          -0.81713230816780    1.50720729302574    0.82893628713279
H          -1.45852214902124    2.84383512836582   -0.01122665871762
H          -1.64498945593772    1.24555265641936   -0.62059106165642
