    26
        -50.46127543  Gyration_radius:  2.58614499967 Dipole_moment: 2.296
 S          -0.96488301870731    0.83079442625114    2.02107781771139
O           0.10736453479360   -0.15024821040153    2.15254224887028
O          -2.26018349572026    0.22500705809599    1.83609373996733
O          -1.00293098010171    1.61017902427001    3.40582583049253
O          -0.67077784134918    1.82057970979985    0.98597416871700
H          -1.40941269194331    1.11989109626039   -0.28870427207652
H          -1.91227243183135    1.87018828977142    3.52659778162505
O          -1.88456597406024    0.51571232754271   -0.91083940406505
H          -2.80055883466388    0.55000735174649   -0.62386578028907
O           2.39538572486355    0.15922326801847   -1.31479662703513
H           3.25551348338388    0.44931504321313   -1.61993238071567
O           1.10516773428500   -2.23656421758588   -1.58919431834770
H           0.65281044651223   -1.76581072735605   -2.32067853685094
H           1.82050659400033   -1.61927621921160   -1.35608876010453
O           0.04609287677366   -0.15280851619032   -2.89426723543158
H          -0.71075301502217    0.19498272559087   -2.40669409660047
H           0.82901183505583    0.25780253715180   -2.49811194993864
O           1.95773062724458    1.40225784265292    0.97248431143778
H           1.11296090051322    1.86881817360808    0.84613280315871
H           1.71426947133613    0.71264667269710    1.60746433946761
H           2.24096804465715    0.63200335794687   -0.45672914334466
N          -0.72906500365974   -1.68377036699655    0.18770632628482
H          -0.31833241437940   -1.21447972582420    1.03776458362511
H          -1.33715808542022   -2.44260946304520    0.47742435329912
H          -1.28372358311529   -0.93563688560678   -0.29506780041370
H           0.04683508653298   -2.01820458237142   -0.48211799932249
