    26
        -50.46434394  Gyration_radius:  2.49859050077 Dipole_moment: 7.189
 S           0.24633471985656    0.92863436113112   -0.29965420133241
O          -0.85476595262613    0.90802490010484   -1.23887220514779
O          -0.30840653900470    0.81657252495036    1.14450300079731
O           1.15511546248456   -0.20057665715306   -0.50132139497907
O           0.98156246524837    2.19791624544814   -0.30017094355956
O          -1.44833536167116   -1.18404997228142   -2.79398678126903
H          -1.18587166519654   -0.37716188723762   -2.30303510545869
H          -0.98756240861821   -1.14957372927892   -3.63280237235619
O           3.11161103667322   -0.28038675291217    1.19673859663204
H           3.91452594787306   -0.38366550059690    0.68315191099381
H           2.36406606181697   -0.36455005248816    0.54679752461523
O          -0.34574952830126   -2.42943712676777   -0.59312380543601
H           0.33661963757994   -1.73339877463587   -0.56954593633209
H          -0.82113603081287   -2.27747850811062   -1.42703982301338
O          -3.34385987143490   -0.10040327268311   -0.76991867364061
H          -3.33101865456919   -0.71766310666164   -1.50855573419261
H          -2.59718196064302    0.50037846049203   -0.93526060252087
O          -1.83026587395820   -1.15202796828175    1.16854649325285
H          -1.32175631129912   -1.79939050922733    0.61413844636357
H          -0.95996350330249   -0.01275819118145    1.20188698049958
H          -2.56670307279877   -0.83819469738346    0.59517046401366
N           1.98219155416398    1.95451147240096    1.98631984932149
H           1.58315893472282    2.18786852866296    0.96396302923198
H           2.59348263038624    1.10448155398900    1.83209901673798
H           2.47454598214606    2.72813194629245    2.42042891209223
H           1.15936228128673    1.67419669340006    2.51954335468260
