    26
        -50.45004746  Gyration_radius:  2.5382416497 Dipole_moment: 6.004
 S           0.53852433289479   -0.83012529304416   -2.42656713231080
O           1.22463898923943   -0.30346583652579   -1.26700437894270
O           1.31953240553295   -1.14488398139977   -3.56112734666930
O          -0.26950363401377   -2.07900836663382   -1.98648794539155
O          -0.55883342634578    0.18818368684006   -2.83649686930727
H          -0.93757243933659    0.64531291607668   -2.03298960204763
H          -0.43733349745410   -2.10341076490356   -1.00166569968779
O          -1.49336028251525    1.53003917649204   -0.82404307121948
H          -1.97764088999329    2.27794909693841   -1.17727111349913
O          -0.81803928601674   -2.28404003574685    0.53611687895696
H          -1.50311419121159   -2.95098384400448    0.60414836958080
O           0.62151348734757    0.68897625877326    2.59717890017056
H           0.76919334338363    0.53153434527111    3.53035469407953
H           1.10655032760264   -0.03216681083349    2.11400051489854
O           1.69915340824591   -1.28024725459523    1.20612711789694
H           0.98503972537821   -1.93017533918517    1.17585357920842
H           1.72500824736882   -0.91472113391874    0.30372602266374
O          -1.73221219866612   -0.03818924303777    1.42931265720691
H          -1.21423015818036   -1.42832346213624    0.89284262614622
H          -0.96475142569087    0.31143426828504    1.92625342815628
H          -1.81221096045659    0.52729749059780    0.64437761783637
N           0.82687377070392    2.20833384254830    0.06887240464156
H           1.30533710769416    1.44618765914349   -0.40770884196158
H          -0.59687017018143    1.88777510543743   -0.46343040843040
H           0.86444300100546    2.00944521196151    1.06415506346211
H           1.32986441364838    3.06727228761155   -0.10852745540563
