    26
        -50.46047171  Gyration_radius:  2.37994784449 Dipole_moment: 7.202
 S           1.36430099362875    1.23076024974775   -0.79438209856310
O           0.57645007266666    1.98910261989595   -1.73747805338791
O           2.74416119627308    1.00821073581351   -1.09638063332389
O           1.15967874630778    1.69961539451872    0.59368439493753
O           0.69594085673771   -0.23865233160647   -0.78851555913792
H          -0.11418604104119   -0.20662850091601   -1.33517369613028
H          -0.15131358510557    1.34811126511531    1.26203626790679
O          -1.66649969332344   -0.41221629363637   -2.04192171289548
H          -1.60589851578873   -0.20163188579723   -2.97528559218130
O          -0.99739554223917    1.02696976446460    1.71551488831232
H          -1.09558834417954    1.57521533668737    2.49561809309793
O          -0.86039282348236   -2.62889580625136   -0.59339392508405
H          -1.36544594692014   -1.94082232728273   -1.06015937837631
H          -0.07925459684377   -2.77723052214554   -1.13227585401251
O           2.49569403273580   -0.41091045980835    1.27542794300766
H           2.96301077162573   -0.50555301427703    0.43689509551567
H           2.11913764257347    0.49391161424180    1.18341955216374
O          -1.90138257078499    1.85980043396364   -0.84199720829845
H          -1.79552450993320    1.67754407606073    0.10220101858507
H          -1.00674659230311    2.10349174840179   -1.17652829503664
H          -1.94595566893329    0.44031819519536   -1.59396678720623
N           0.08710926821595   -1.44705804299980    1.63906705422562
H          -0.45341307278682   -0.55809126902605    1.76342159450962
H          -0.28755574504982   -1.93732462678114    0.78524455419294
H           1.09833138611990   -1.15053692529229    1.45321050805997
H           0.02273829183019   -2.03749941828052    2.46171783911763
