    26
        -50.44657213  Gyration_radius:  2.48397787595 Dipole_moment: 7.302
 S          -1.74042407664390    1.81160389080967   -0.39120457333883
O          -2.29900944317983    0.49091250361690   -0.43818305706762
O          -2.35316259745659    2.82601047227300   -1.16561795523513
O          -1.58751129253710    2.27326907489965    1.06410057095910
O          -0.21481068851464    1.68323274026967   -0.81250154074812
H          -0.05839290562897    0.87170364994680   -1.38811055617657
H          -1.18379622836130    1.48939734746964    1.56958683822396
O          -0.36765660472350   -2.13035241342041    1.16299654071697
H          -0.86767589045057   -2.72673870040180    1.72193790285797
O           0.49948836669085   -0.37541522990464   -2.17275199724732
H           1.03771119212038   -0.07657103308906   -2.90751114494144
O          -0.34090517232886    0.36543594087980    2.18686699069601
H           0.55890139356314    0.65926580848658    1.96387528190925
H          -0.43494046769234   -0.53393953824865    1.80165247001975
O           1.82762121474568    1.60492457608856    1.01367079270946
H           2.00181836165220    2.45635241767711    1.41887567151778
H           1.17131642015114    1.76187518009626    0.31034170601277
O          -1.58361140950104   -1.97228515695668   -1.15629915241974
H          -0.83799308457279   -2.12227226119345    0.28374797339685
H          -2.07531022276870   -1.16199503482917   -0.92992061453707
H          -0.91249115785509   -1.67240452531066   -1.78204139469886
N           2.04075152166608   -1.14035167481926   -0.21329941289871
H           1.13740284350586   -0.71811475630980   -1.45145206093527
H           2.86076535013491   -1.71444938820751   -0.35807721649782
H           2.32163522353603   -0.29920119859738    0.27938623987960
H           1.40027935215583   -1.64989267205695    0.38993168731238
