    26
        -50.44657211  Gyration_radius:  2.48398231843 Dipole_moment: 7.303
 S          -2.35706269266420    0.92358662464456    0.23947239397268
O          -2.33522448049184   -0.50491756843893    0.10715701361088
O          -3.49206145697740    1.62338343598688   -0.23631422977901
O          -2.05129063340803    1.32865856729392    1.68752640847041
O          -1.05976179223053    1.47502951769388   -0.49171975281947
H          -0.73748904133809    0.83771142974548   -1.20170323252889
H          -1.25835062168330    0.76327046031150    1.97892348497301
O           0.80795988552209   -2.14345229036992    0.87985366042712
H           0.74440371830976   -2.92616240581804    1.42873048792448
O           0.06255951513441   -0.01312435201310   -2.25998736755290
H           0.24028169407825    0.52370127831606   -3.03398504517536
O           0.08522835622685    0.07086473390124    2.24079501137175
H           0.26646488276711   -0.76248778224725    1.75220114423761
H           0.70891401138741    0.72873606859132    1.88849821320980
O           1.22184112973762    2.17067117357537    0.85828767826627
H           0.40794287047449    2.07273743914735    0.33097202802066
H           1.13364482762361    2.99186165704947    1.34552116824138
O          -0.89471411337129   -2.39220906297316   -1.10031807036481
H          -1.59746237221352   -1.87917845981314   -0.66149383775966
H          -0.57352012414575   -1.80366455749864   -1.79481589482661
H           0.17442336249825   -2.28858180368931    0.12352365907461
N           2.20738322981678   -0.15736515727853   -0.78367951141988
H           2.24069918959432    0.69650434868164   -0.23691027889083
H           1.99021892215071   -0.92053030705937   -0.14789528093612
H           0.93882762147839   -0.09151458862650   -1.73997041283742
H           3.12614410180804   -0.32352841961695   -1.17266944702293
