    26
        -50.46682784  Gyration_radius:  2.46513389596 Dipole_moment: 2.715
 S           0.22054685618655    1.67406915605940   -1.57402781038928
O          -0.64672923953358    1.82316784398182   -0.40245203847757
O          -0.20894670288117    2.41558594419402   -2.71365695127610
O           1.63660403201196    2.27338895122403   -1.14002083967767
O           0.48894233423306    0.25657252289378   -1.81605574126421
H          -0.45468533416510   -1.04518417517194   -1.61669630546046
H           1.54516966983457    3.15909158309258   -1.47114133371798
O           0.79712766312286    1.20090312094204    1.81157912867033
H           0.28245449551424    1.60324528548562    1.09098142726523
O          -1.04983672519009   -1.80680451985602   -1.40659053153753
H          -1.15810369279394   -2.29480865121287   -2.22386535644334
O          -0.78967704351339   -0.79955250427782    2.51648432591987
H          -0.26835306718577   -1.52867999049306    2.10806984045899
H          -0.18250434809099   -0.01905360449417    2.49264063625887
O           0.58215581528795   -2.38218343978579    0.85886630444306
H           0.03193185103974   -2.38405670430525    0.06272205268483
H           1.33621799358233   -1.81116765356236    0.65311465829952
O           2.26676824226067   -0.30080901335978    0.02666879057682
H           1.48943933284557    0.68829030948688    1.36038700401117
H           1.64294764083108   -0.08595997106766   -0.70312319320025
H           3.10082904965849    0.10555622014203   -0.21259288716818
N          -2.16729572189170   -0.14977581442896    0.45329327564612
H          -2.02869303005577   -0.90698294498984   -0.23327627683274
H          -1.64030346449575    0.69284284523151    0.09586054213369
H          -3.14889239757643    0.06637485480894    0.58166535347494
H          -1.67711421905210   -0.44406964051632    1.40116591557396
