    26
        -50.45954385  Gyration_radius:  2.46048182345 Dipole_moment: 8.181
 S           1.43676483350786   -0.86375990400206   -1.17072847732767
O           1.80106139754200   -0.54500001405325    0.22373697232403
O           2.02945001495971   -2.06108590444626   -1.65524674159229
O          -0.03470776274447   -0.82860021208025   -1.28937485483774
O           1.94385531628922    0.35081891212113   -2.02801642408021
H           1.37923599334653    1.09018392206532   -1.74063058100041
H          -1.32140797573350   -1.04750329252439   -0.40102296830064
O           0.26670870974242    2.41307474308945   -1.44996900162845
H           0.51702520945343    3.10609361059337   -2.06305304413238
O          -2.13168768991090   -1.15561451543479    0.16896871553972
H          -2.27602514607467   -2.10249428824827    0.21218719418353
O           0.70610500400833    1.60337210757859    1.15975938533785
H           0.44582971749779    2.08647241598742    0.36281869331358
H           1.25289929456916    0.84607604067966    0.82112820618400
O           0.92597230719180   -2.04651313000872    2.13104553242835
H           1.29479367195010   -1.58017601333611    1.33224382111209
H           1.68886253591485   -2.28571989092229    2.65911368397270
O          -1.61493974785219    0.88393325477769   -2.45682620038406
H          -0.51706389931559    1.95247833904074   -1.84785593734637
H          -1.01654395396823    0.14372072090415   -2.19811757609877
H          -2.42972494048492    0.72744954532333   -1.97440001097363
N          -0.89314866941202   -0.12682618570951    2.27194133232453
H          -1.53063569206460   -0.48414834796210    1.50997984323272
H          -0.19519096187178   -0.89715907559265    2.43796393853187
H          -0.33055929072924    0.69486498633630    1.87072822547503
H          -1.39692828580585    0.12606218582529    3.11362624373859
