    26
        -50.45687624  Gyration_radius:  2.47765586521 Dipole_moment: 7.796
 S          -2.45562259237544   -0.35544904637835    0.25546466768596
O          -2.13623660972474   -0.81265644189411    1.58795577976957
O          -3.78982481464139   -0.58167821810122   -0.20146779606745
O          -2.31666763774656    1.26308340442781    0.29640724178568
O          -1.40920072315657   -0.76065707507667   -0.69738438604435
H          -0.30466706561682   -1.81793827594066   -0.32808638247491
H          -3.24518311684136    1.43274220057767    0.18852320372434
O           0.48111006311815   -2.42202833578918   -0.18571753327582
H           0.22082723626931   -3.27210004363310   -0.54221555667045
O           1.80564036364071    1.03599800688619    1.22101950418301
H           2.35627707502303    1.36789871086271    1.93065791944939
O           0.05429209518575    2.60413969420458   -0.29091728783592
H          -0.81777386283247    2.32650536123897    0.02342846227956
H           0.69288432524372    2.18951978158108    0.31150212762948
O           0.04488821005436    0.79615513292496   -2.23381807258016
H          -0.64292707637697    0.23069322373111   -1.81261515646860
H           0.03080354577799    1.62870994246284   -1.70326981880899
O           0.39056225232945   -0.88703421742453    2.17200186669593
H           0.60334454947961   -1.65796957871216    1.63103635092029
H           1.20767286440397    0.33613148299071    1.63643694388865
H          -0.58821527178578   -0.78687748066103    2.05873398955251
N           2.00237523360378   -0.38212155632799   -1.07006420833010
H           1.23062067233059    0.12964919387624   -1.67541061959542
H           2.13384055846294    0.19583839049832   -0.21445048119704
H           1.58062410919983   -1.29179981565067   -0.78131886563660
H           2.87055560704537   -0.50875444085928   -1.57643188211602
