    26
        -50.46788074  Gyration_radius:  2.39855673766 Dipole_moment: 5.649
 S          -1.02371352322392    1.47192069004898    0.21487976694823
O          -0.56820364991494    0.85166743189959    1.48138632585335
O          -2.40014774183836    1.88278462313671    0.27963008876990
O          -0.12638207510139    2.72820089863032   -0.00779798308858
O          -0.77123809530352    0.55021713028167   -0.88732898466925
H          -2.93803496636392   -0.41403715586946   -1.46971909212351
H           0.78645553804611    2.39439608407204   -0.17975081082454
O          -3.27790684187532   -0.46721220127377   -0.57161123803428
H          -3.14134169988614    0.44203058366891   -0.21641606563670
O           2.29122081427152    1.76042909616081   -0.58270067614575
H           2.75178724155848    2.40589656291289   -1.12141733880303
O           1.89237594302626   -0.10820711139631    1.44954943556063
H           2.36231117311628    0.53713094967419    0.90609842442514
H           1.01195703007040    0.30012778833186    1.60304641751567
O           1.15880898793636   -2.20085886752051    0.06971413898990
H           1.49509317698653   -1.42169793996814    0.60136994683859
H           1.67265039317474   -2.95808919236379    0.35317055274828
O           1.44489336303805   -0.25598629969723   -2.00286617039417
H           2.05836972501306    0.99810263581132   -1.18961467308007
H           1.54175319344089   -1.09209103116585   -1.52812731690942
H           0.53937392945772    0.04092959002083   -1.76214719942317
N          -1.35903786947103   -1.52971332333796    0.91926664030965
H          -2.14124829656167   -1.26881783574723    0.24836932841247
H          -1.68979234993715   -2.13853378033547    1.66071204124152
H          -0.53214052002943   -1.93246334212386    0.43306068485162
H          -1.03786287946240   -0.57612599370422    1.29924374654832
