    26
        -50.45450817  Gyration_radius:  2.46053693086 Dipole_moment: 8.296
 S           0.62963174654338    0.95818265249414   -1.92919392526645
O           0.71758936798556    2.08562257079430   -0.99179514121746
O           1.21303568152045    1.17424475266801   -3.20729191272487
O           1.45088548388629   -0.21272991331301   -1.18549107451333
O          -0.73966889115613    0.43041014195351   -1.96161392262623
H          -1.31794684972423   -1.01408420953144   -1.49014240419710
H           1.99095774201060    0.25102533214725   -0.51489264442231
O           0.56687727746788   -0.63066570868954    2.29444751304375
H           0.39186151129787   -1.09162394636368    3.11537199899786
O          -1.74841103491221   -1.82274678610098   -1.11190640524772
H          -1.92199205920612   -2.39646933271735   -1.85926519014699
O          -2.77550332335001    0.77915164624579   -0.30679641587796
H          -2.17758419410398    0.83940681367517   -1.08336871398890
H          -2.97579930917176   -0.16125806913308   -0.24103779827380
O           2.72462922220918    0.54714582219643    1.02760503982914
H           2.06563018779194    0.15470713234393    1.62598546226199
H           3.52632172278041    0.02789784327754    1.11099472566238
O           0.47800579913809   -2.28162368880497    0.31292775847300
H          -0.42160361824497   -2.28631171207142   -0.07522639955372
H           0.99525526446151   -1.75499805469467   -0.32000239909991
H           0.50753097699738   -1.32218758646265    1.56305043187538
N          -0.64148224301412    1.54392804945372    1.07657897070022
H          -0.21067377287333    0.76470642147065    1.60124010552414
H          -0.01513638960321    1.80091640945036    0.20172694230510
H          -1.57596663605873    1.25516276551133    0.68000575504099
H          -0.73644366267436    2.36219065419405    1.66808965344518
