    26
        -50.45380109  Gyration_radius:  2.45493744916 Dipole_moment: 9.091
 S          -1.23506581360975    1.91305105479871   -0.43034523316334
O           0.16919372420939    2.36415491947757   -0.40163558656390
O          -2.18512815212535    2.93093121875016   -0.71188581189838
O          -1.28434654248388    0.82994052058696   -1.59441669492981
O          -1.52909170559656    1.14226049163348    0.79057757324164
H          -0.66090579226860    0.48734508180387    1.90855512154162
H          -0.37899702128646    0.76431417916273   -1.95933193249386
O           1.65772719350578   -1.63362655458444   -0.63208310149093
H           2.22207977559800   -2.40710637320967   -0.65139050895018
O          -0.03707514182337    0.05305683460060    2.56163824727460
H          -0.36598382764281    0.28943342684020    3.42954341067395
O          -2.56040116194406   -1.14262605964348   -0.05798978271499
H          -2.60192948535207   -0.98785106566552   -1.00468392472257
H          -2.32936700356291   -0.26642881556309    0.31836335842715
O           1.08858280206842    0.17258409485791   -2.58977498330621
H           1.30224238344366   -0.56198065617257   -1.98515658241789
H           0.89291812270844   -0.21324177686773   -3.44526570648363
O          -0.31585435028671   -2.19667904881579    0.90403176267788
H           0.84850395673255   -1.89443336523527   -0.08083701278822
H          -0.21936229681835   -1.59063815148607    1.65442882358456
H          -1.18788658810658   -1.95754164398302    0.50812671881823
N           1.77486885450354    0.77011198437777    0.70289391942946
H           2.66560192501617    1.22302562714513    0.87174178738189
H           1.08156467261169    1.48093971400008    0.17535091985091
H           1.89148887174205   -0.08519454157574    0.13180485605234
H           1.29662262076413    0.51619891475841    1.58774035297426
