    26
        -50.45380151  Gyration_radius:  2.45519181557 Dipole_moment: 9.093
 S           0.97954152869195   -2.09523599936019    0.16245968546668
O           1.04324417875130   -1.75408709385625   -1.27136056228253
O           1.55489515227624   -3.34781645252655    0.50598898914730
O           1.79867909025774   -0.93958681439867    0.88631703362421
O          -0.39985880868396   -1.91766600056986    0.64918650976473
H          -1.67899445958167   -1.21981820426712    0.09247309547443
H           2.10511465917122   -0.32843501189730    0.18661018762685
O          -2.44328115518227   -0.70972599391253   -0.30732817140764
H          -3.20189924336566   -1.29119250782177   -0.24670743458817
O           0.10663479024128    2.34910579821386   -0.53611503665373
H          -0.10559015494614    3.27772298182319   -0.63500785447070
O          -0.19649836729919   -0.35292032560732    2.77326955863513
H          -0.31913165124753   -1.05000548312419    2.09363893711846
H           0.75650354673125   -0.26275991963559    2.84761429122865
O           2.50517472405290    1.06927328748650   -0.70153557381578
H           3.22209261549940    1.50353464011071   -0.23636621610033
H           1.71349517900600    1.62849734582551   -0.59563780494839
O          -1.47477917207838    1.41543880763652    1.25226821310164
H          -2.02768194138689    0.77668597577069    0.77685409349548
H          -1.00492210430697    0.87386966840044    1.93068773497267
H          -0.47504093064323    2.01087357098732    0.22161183288837
N          -0.50405623757236    0.09626153289284   -1.99364419710623
H           0.21879004801900   -0.70831907759940   -1.68656428150348
H          -0.56159152050021    0.13659274427893   -3.00464748974981
H          -1.41229331989399   -0.16338721838076   -1.56500098507831
H          -0.19854644600371    1.00309974953178   -1.59906454483833
