    26
        -50.44620151  Gyration_radius:  2.53600151403 Dipole_moment: 5.818
 S          -1.93642024806998    1.03558258553444    1.19982718321437
O          -0.68545368805945    1.71193332389218    1.44997149544806
O          -3.12044159732927    1.78975303442420    1.36907843290883
O          -1.84763321749402    0.43685624649102   -0.24797120664889
O          -2.01978121384986   -0.24237544788732    2.05510612212496
H          -1.24980851944863   -0.86345171716730    1.86751490815116
H          -1.25003419364222    1.07709833482845   -0.75971507495453
O          -0.19174998356273   -1.97877949052096    1.50116300748371
H          -0.45795849339641   -2.77667618902587    1.96277285620607
O           2.11035530904412    0.74645711340849   -1.23793085210357
H           2.99885865282877    1.06999822471240   -1.38926065789745
O           0.69235431852905   -1.07820719833270   -2.68168668046059
H           1.28112150970394   -0.48705605623882   -2.17705824000853
H           0.23108079873044   -0.52377273763828   -3.31350846501541
O          -0.20217635259051    2.13670792119867   -1.16091146596752
H           0.65831178939847    1.68713643048747   -1.30546582315548
H          -0.17247359112000    2.46323534930593   -0.24915679835496
O          -1.05322030681279   -2.15051838949572   -0.92855848257482
H          -0.44933826862917   -2.11962296583137    0.53840858858737
H          -1.63000087367142   -1.37714484322832   -0.87031405009853
H          -0.37447666185462   -1.91615351350557   -1.59666951043348
N           1.75929325286247    0.25002221174658    1.29873819906699
H           1.42366037134780   -0.69752621946486    1.43778449321775
H           2.04162480721215    0.51041166826631   -0.25179764237813
H           0.96917066274219    0.86478545183140    1.49887675923425
H           2.47513575711052    0.43130685223164    1.99076290439424
