    26
        -50.45661955  Gyration_radius:  2.64156911962 Dipole_moment: 6.164
 S          -0.10752774816092    1.80696471010051    0.38567317133478
O           0.25496662106960    1.50081782627837   -1.00439314272176
O          -1.10153464980022    2.81447885800405    0.54511044556932
O          -0.41781734615850    0.55558999993851    1.10876304780877
O           1.22905052323618    2.33370155239898    1.05778521320396
H           1.90477683715787    1.65049788663029    0.89579113718487
H          -2.59023973687865    1.79206545268374   -0.65965164399583
O           2.89649221889301    0.14547539704080    1.05283769533537
H           3.78519235740967    0.37907523622547    1.32599069776227
O          -2.36348407554595    1.22728456141198   -1.40578246704948
H          -1.40625698557890    1.36664684181079   -1.50954147163535
O          -2.78203859678618   -1.39547185896176   -1.69593338376448
H          -3.31484627310700   -1.39659231881597   -2.49303992110663
H          -2.63416275483183   -0.44513118881166   -1.48618012945305
O          -0.58613891793040   -2.86662483955897   -1.69447868257798
H          -1.41290565441454   -2.32435479309674   -1.75651935152609
H          -0.81873832462906   -3.63143770565211   -1.16535972202625
O           1.21814471615262    0.03350372487312    3.09088156134395
H           0.47722081613652    0.19519390665804    2.46047913688564
H           1.23306253085211    0.80080728436094    3.66617736684872
H           2.38054645037756   -0.01561422919977    1.88283858668461
N           0.85671874377279   -0.95191023602006   -0.53519353771413
H           0.41859724262078   -1.77015443463287   -1.02916754724014
H           0.78800453384383   -0.06344476183046   -1.09222332999876
H           0.27265663528509   -0.64518365316191    0.29118184081429
H           1.82026085703256   -1.09618322863224   -0.23604555995661
