    26
        -50.46811955  Gyration_radius:  2.53578270723 Dipole_moment: 5.659
 S          -0.62567700796047   -0.64683369786588   -0.00199272270293
O          -0.91296592668066   -1.01089588177600    1.37097330820216
O           0.39644039680987   -1.51845333107097   -0.58237702404865
O          -1.91861027981955   -0.77256732273858   -0.81058421574060
O          -0.18283177252161    0.76176648629465   -0.08038140487484
O           1.11111512945493   -0.82479185104728   -3.01949316646120
H           1.28537641363194   -1.64493300488640   -3.48464701241666
H           0.93636387689944   -1.07578773879284   -2.08540308630092
O           1.83207155974872   -1.77533205393999    1.57585243640519
H           1.40310127619102   -1.77879459327318    0.68566442475298
H           1.18190850469148   -2.19800097987519    2.14376373075655
O          -0.71907848146490    0.59243057792779    3.43288366709123
H          -0.99044498436873    0.11049493292446    4.21543046434117
H          -0.95309274717115    0.01798299362375    2.66394867816132
O          -1.19654415090318    2.49837239130380   -1.84011424123395
H          -2.03011482237579    2.76906025614618   -1.45161007441107
H          -0.74949653833463    1.94602550759012   -1.16720096509473
O          -1.38753698473587    0.12948552909203   -3.10766374235688
H          -0.45772949757322   -0.15735906187714   -3.24707205239615
H          -1.74238062324656   -0.44855924525612   -1.77558539456529
H          -1.33836938288842    1.08398149511416   -2.89150347565437
N           1.44758952372228    0.81433720688658    1.90850750392360
H           2.20690299795434    1.48543394265602    1.94300645816493
H           1.78157120956199   -0.19261795795822    1.86167615117287
H           0.78636125175045    0.90413961419321    2.71041107887348
H           0.83607104962325    0.93141578660338    1.03351069641553
