    26
        -50.45661953  Gyration_radius:  2.64172217328 Dipole_moment: 6.165
 S           0.18156963085965    0.85367683690394    1.63381158993917
O           0.63485076562769    1.64155956085788    0.48000958967710
O          -0.62210707403235    1.56122658166212    2.57296529823736
O          -0.43198176730603   -0.40785304030189    1.16795506382103
O           1.50858853255841    0.40039381314861    2.37508819259139
H           2.06147957109447   -0.03889052737054    1.70344544054056
H          -2.13155194129889    2.13320427750347    1.11894425053966
O           2.73700474046480   -1.29442072968693    0.59008381850833
H           3.61732601883419   -1.53646653683774    0.88228411926241
O          -1.92957460393618    2.30057139716542    0.19254784041148
H          -0.95746802936215    2.27374099693887    0.16629833442153
O          -0.90180889048809   -0.37697978966888   -3.23802642957022
H          -1.60488932756901    0.17291139804671   -2.80819944227569
H          -1.32724089491064   -1.20431556749855   -3.46940235383454
O          -2.78146102128734    0.97934040136456   -1.96784409769517
H          -3.21189612134588    1.69120668888260   -2.44449277746205
H          -2.48831576383432    1.37905797444892   -1.11740100173158
O           0.84972159887281   -2.56372289055259    1.93427069610672
H           2.11062619956028   -1.91748460860268    1.03827661562288
H           0.22596185370852   -1.83597152062321    1.70228428033571
H           0.94127591342826   -2.52394295542596    2.88822360341858
N           0.72191877297964   -0.36026422659674   -1.12701609815121
H           1.60331457693574   -0.87175448993759   -1.10882506989862
H           0.20185797970210   -0.40547053183018   -2.03960364660094
H           0.11363238026232   -0.67663908608160   -0.32223709773003
H           0.87916691051930    0.62728658412467   -0.80344074853458
