    26
        -50.45980651  Gyration_radius:  2.48346414784 Dipole_moment: 9.580
 S           1.67772324791523    0.41569888899308    1.65730714259913
O           1.70308725325826   -0.82008602121038    0.86683638086268
O           2.40142597994624    0.37956113079934    2.88120200590026
O           2.47492608202031    1.47015029864807    0.70967959279941
O           0.32695242251076    0.95550065686012    1.71827243454392
H          -0.04865741224578    1.74115275988518    0.40525998801256
H           3.19506982122084    1.69565550065861    1.28853685549919
O          -1.09468781553332   -1.48350697747642   -1.95157260858332
H          -1.60101065305270   -1.86790727012067   -2.66712062539281
O          -0.17762226696550    2.15287864575773   -0.49501384275619
H           0.17579620368717    3.04077808022587   -0.42726097743345
O          -0.50533465229559   -2.47843736449556    0.68446399814169
H          -0.69032281748149   -2.35904134540882   -0.25685038651664
H           0.34301123839845   -2.04044717016656    0.85408161227783
O          -2.04488387962874   -0.45462966793488    1.64354314902290
H          -1.29564244366774    0.10994465026262    1.88708046438922
H          -1.64678922606791   -1.32792185984980    1.45530008519782
O          -2.42549954067958    0.40077044789702   -0.81176617624362
H          -1.68977705660784   -0.78554049730043   -1.52435889557484
H          -2.45055719770285    0.08969609882903    0.13341965108355
H          -1.86937911715186    1.18903978615943   -0.79654401480368
N           1.06214664735251   -0.00247537707321   -1.48172466011701
H           1.83612560891654    0.06982563911304   -2.13243465923369
H           0.64320452080851    0.93521604052809   -1.27012760413651
H           0.30531587057156   -0.63528864246916   -1.83695071308562
H           1.39537917480346   -0.39058644578028   -0.53325819567476
