    26
        -50.45166240  Gyration_radius:  2.45807693725 Dipole_moment: 7.173
 S           1.69227826590039   -0.91990741255931    1.09845041980713
O           1.83640423657350    0.39654651821831    0.49907018017018
O           2.48100109599780   -1.16957217963191    2.24480681158140
O           0.18749434206402   -1.14609940369901    1.36338513546507
O           1.98384737092289   -1.98346742889431    0.02179768435384
H           1.45200468189333   -1.78120975600456   -0.80421601027516
H          -0.28197029928134   -0.27209975453739    1.69462786895606
O           0.70133518890410   -1.42239164637247   -2.16107148096891
H           1.33038284926000   -1.55647019906090   -2.87259825612172
O          -2.03668369148608    1.07784301113023   -0.52325734836925
H          -2.89802722230359    1.40418087012323   -0.78558800673864
O           1.12930034759352    2.62263117968521    1.78573993625088
H           1.59481097598290    1.86034476344761    1.39146170100067
H           1.21200201461023    3.34541452165817    1.16062133424116
O          -0.97902304157960    0.98121512078990    1.97255249119927
H          -1.43924683991423    1.15078790614657    1.12546072292166
H          -0.28549121965544    1.67160861584778    2.05423072108565
O           0.46852960000775    1.11015596034599   -1.67280385621360
H          -0.42972684096834    1.25829880028007   -1.33056867396842
H           1.03896924096595    1.00211063089413   -0.88646504634203
H           0.57575468956572   -0.42826534195260   -2.08008425910514
N          -1.90478709738187   -1.55754973051356   -0.68419070874579
H          -1.28325962852879   -1.78804695235799   -1.45234879378220
H          -2.69681005661556   -2.18653459221581   -0.71848691676505
H          -1.38850678944049   -1.74490554032813    0.17058503197665
H          -2.06058219307888    0.07538203954622   -0.61111069160817
