    26
        -50.45166240  Gyration_radius:  2.45813119246 Dipole_moment: 7.173
 S          -1.95112063111898   -0.24336959293530   -1.02526878317092
O          -1.87840754896551    0.42874454167861    0.26159760926075
O          -2.99979279884248    0.16557246114010   -1.88060758213542
O          -0.56550673228363   -0.11258269947833   -1.69511743872909
O          -2.03847438843099   -1.76255234413363   -0.78087652664601
H          -1.31668622782039   -2.04353550547757   -0.14356237966488
H          -0.14048879252893    0.82751484079203   -1.52294663818895
O          -0.24859255453377   -2.49585243571934    0.94634468029070
H          -0.69815045398351   -3.09237759794879    1.54799975106338
O           2.15816116659099    0.74850510260340    0.60543056635368
H           3.07348066509598    0.93748784900123    0.81436166962297
O          -1.37380127621697    3.03895902692848    0.46923840888731
H          -1.77409340917252    2.15031727672410    0.41177693326726
H          -1.26798226590430    3.23035998951633    1.40314137047535
O           0.53856694871369    2.05988713551498   -1.13051081288297
H           1.19388177739015    1.73354286560325   -0.48073278751210
H          -0.11608088420759    2.58722353914237   -0.62297498695505
O          -0.00036910696418   -0.16837703923562    2.05437231429884
H          -0.09184644781900   -1.64507865834970    1.45839096619868
H           0.79849464481368    0.24551363886024    1.68497798602002
H          -0.74512990708625    0.15940331678164    1.51274626341045
N           1.92520274128752   -1.45412184643496   -0.83765085414630
H           1.21285892691470   -1.14298003953727   -1.49190670319747
H           2.14771153380213   -0.09775310110515    0.06045711241224
H           1.49037559006663   -2.16015993842743   -0.25289693162471
H           2.66778944133384   -1.89429078547994   -1.36578319668228
