    26
        -50.47071317  Gyration_radius:  2.41582079919 Dipole_moment: 4.143
 S          -1.29481306901399   -1.52088182125457    0.34527327589805
O          -2.04610850089440   -0.59626019573433   -0.48666631292615
O          -0.11301055084717   -2.05871741312121   -0.28446773115046
O          -0.99913716937426   -0.94109244107505    1.65747303634350
O          -2.25667368140350   -2.75003587866473    0.61122794424811
H          -3.08175547654327   -2.32258748565409    0.81336529410414
H           0.61727028010691   -1.15826494073271    1.89184835323389
O           1.57496184583188   -1.33705423624775    1.74463481547642
H           1.56020899246596   -2.10158598189418    1.15773702604729
O           0.29042695709501    2.51059202523156    0.04977157647663
H           0.32885498057529    3.44730868491784    0.24576020199902
O           1.36691613949925   -0.74740923423246   -2.06902492731793
H           0.67079451674778   -0.12204427168198   -2.38215412862505
H           0.86366587609314   -1.41625660542352   -1.56189041358518
O          -0.64508722594154    0.96092599110806   -2.18951075760141
H          -1.24495424283630    0.37936900139957   -1.68379282562032
H          -0.37510692515888    1.65941989294238   -1.57861450299794
O          -1.81987019906342    1.49164006719174    1.17120228810606
H          -0.51472676704483    2.15914880293375    0.53235483027290
H          -2.27426270782029    1.10606198389044    0.40735543784354
H          -1.48683871078647    0.69117566148121    1.62595550565327
N           2.19809369746690    0.55442066590737    0.00630117445447
H           1.95459645775788    0.03113403155445   -0.92025602163420
H           1.55102936513525    1.36172564668076    0.09238529082670
H           2.01159303942727   -0.14288672396645    0.78875819623998
H           3.16393307854401    0.86215476442348    0.01497336424528
