    26
        -50.44620173  Gyration_radius:  2.53516892356 Dipole_moment: 5.808
 S          -2.41324231827193   -0.65401720728601   -0.03093040159899
O          -2.00194316329190   -0.06417555926423    1.22118286539028
O          -3.78646326490267   -0.57585474131337   -0.35859202054043
O          -1.52547454438723   -0.00683508823437   -1.15138771362423
O          -1.95796464837967   -2.12404237218492   -0.09089146542888
H          -0.95975803409301   -2.20569867544527    0.01341694420031
H          -1.32467739079335    0.92968863837249   -0.81763339420641
O           1.46219800439828    1.90340870966475    0.89009976199590
H           1.95695020042061    2.44880704438143    1.50223631198510
O           0.60602105360899   -2.41476409349938   -0.02474037030792
H           0.75815850833846   -3.33611863786111   -0.24505128082603
O          -1.09030099955601    2.18084029110611    0.05548842326859
H          -1.55639735855124    1.76125959870849    0.79414365731270
H          -0.14604316596210    2.20471567394926    0.32222017131285
O           1.99432816120467    1.35871856977350   -1.72648054370584
H           1.50818772902549    2.05075821975497   -2.17842447136772
H           1.90644637392684    1.54091862055934   -0.77266598045921
O           0.84860889156528   -1.03634127630093   -2.19637557850624
H           0.80726622238475   -1.89500812648411   -0.86295591764569
H          -0.06287723977169   -0.71498764819350   -2.19662772643871
H           1.40379375057077   -0.23556981959358   -2.08402595465929
N           0.71366832396418   -0.30438052251630    2.06053171626499
H           0.90373632025484   -0.49219471209415    3.03663579160958
H           1.00780693720989   -1.11389926390027    1.52388741861186
H          -0.29880651715629   -0.23916511686474    1.94680075049864
H           1.24677815825365    1.03393749478435    1.37013899687277
