    26
        -50.45932478  Gyration_radius:  2.4388059589 Dipole_moment: 7.812
 S           0.87106908756163    0.12693154970848   -0.23251066918750
O           0.91904650139031   -0.25598196999192   -1.70647981445580
O          -0.29595141978109   -0.51264014541263    0.38841126427868
O           2.10497285950119   -0.34912670364577    0.38583136347157
O           0.76026149228685    1.58611540217221   -0.10102147739741
O          -2.22174989412047   -1.83702513259436   -1.06906437472430
H          -1.81348370728021   -1.31551499544616   -0.36032489691208
H          -1.62661472571187   -2.59262115340261   -1.17441179060848
O          -0.29635061056203   -0.00923420867271    2.96849568938535
H          -0.42968832378804   -0.18859103233561    2.00618612416603
H          -0.34009571483070   -0.86446325644806    3.40058973265334
O           0.37141208805547   -2.94749404832583   -0.70236745564388
H           1.05392914510703   -2.74490370703735   -1.34539174619326
H           0.26735230782633   -2.14097358176033   -0.17768854967997
O          -1.52118558362635    2.26717345959304   -1.26515593431344
H          -0.70495727463682    2.04825561577994   -0.76628380999968
H          -1.34058642423802    3.08923676912501   -1.72478474067548
O          -1.33368900711585    0.03275547755311   -2.71518028580951
H          -0.02255081122602   -0.13074437570131   -2.19816840356517
H          -1.82389184205305   -0.69142466878927   -2.24920134661176
H          -1.60422042330485    0.86943719482833   -2.27507925762338
N           1.83646257081651    1.34481420405902    2.23649360718420
H           2.51749111421479    1.85823066948017    2.78522320557795
H           1.05887079927384    0.90838727223263    2.79833040084180
H           1.38491785251708    1.89945824684194    1.47293759145935
H           2.22922993372909    0.54994309818325    1.62061560438731
