    26
        -50.44714490  Gyration_radius:  2.43529544394 Dipole_moment: 5.880
 S          -0.95152456892945    0.48718620582365   -1.52270391543594
O          -0.13722107195423    0.01734280888200   -2.59545348050953
O          -2.31743144391240    0.80683850694503   -1.77986023214262
O          -0.87638514935713   -0.56113491248520   -0.37983826648927
O          -0.30433231960165    1.74981234251190   -0.88162834877566
H           0.66029878289361    1.57394687376281   -0.62111919828634
H          -1.69263611457165   -0.35465359267228    0.20158618593918
O          -1.34616642565029    2.20897069452484    1.67219335821994
H          -1.03600936791901    2.43560546672824    0.78602797974592
O           2.00107249837376   -1.30261650948515    0.58161796652809
H           2.82362885037130   -1.74820491486571    0.79034161474493
O          -2.93406726534659    0.27243068172829    0.81093922176475
H          -2.54459334060304    1.06013424060037    1.26612998807950
H          -3.25376103339268    0.59000167740569   -0.04642890428342
O           2.02730359017017    1.30619323675002    0.05523380132699
H           2.08431223563722    0.32978492113642    0.18069491820678
H           1.95875251765408    1.67756571442642    0.93964242236230
O           0.25075397163190    0.04805285797768    2.30488761654139
H          -0.69073986019844    1.58508986020821    2.03193056186962
H          -0.46503916877477   -0.51950574221286    2.59723394670562
H           0.77283887588192   -0.48598109478020    1.68377538205947
N           1.20125472493460   -2.31210735850346   -1.70596562532437
H           0.74777262142095   -1.48461417604958   -2.09909799932714
H           0.48688697901589   -3.02393962812675   -1.61765530990053
H           1.88197366249473   -2.63705508772718   -2.38198181994200
H           1.65305784965143   -1.71914306263007   -0.27050187362530
