    26
        -50.46935355  Gyration_radius:  2.4000063639 Dipole_moment: 3.540
 S          -1.23150082042200    0.91631948273739   -0.99782180095299
O           0.18968497371368    0.97606366257021   -1.38218756095075
O          -2.10876886911211    0.75732800173326   -2.11320307926555
O          -1.41649953272468   -0.14347520171302    0.01323856461188
O          -1.54147373388872    2.26296012598893   -0.26845887627396
H          -0.91197977607752    2.29046405087517    0.48118564002468
H          -1.82289133679392   -1.47044548260021   -0.99608849777265
O          -1.74262022701249   -2.00037589015719   -1.81416222455427
H          -2.09149776714810   -1.40040407624336   -2.48413664187228
O           0.05168516572701    2.18000727254101    1.90661676577167
H          -0.34790017965444    2.71423917275777    2.59548971071672
O           1.84062534284865   -1.43401002722298    0.86239048423298
H           2.19568782335171   -0.52458506364369    0.72838790005018
H           1.12030340958997   -1.30908894821722    1.49979364174992
O           2.23272229184275    1.16290174233691    0.34497033941889
H           1.56688287838588    1.19947330909145   -0.36945681385491
H           1.87181628970607    1.72324584365032    1.03927215934866
O          -0.33700959155354   -0.45711213559084    2.30052626386990
H          -0.98068908655312   -0.88261625169588    2.86866767982500
H          -0.03167308368645    1.24095038411389    2.18258689946958
H          -0.77120364445746   -0.37652673222176    1.40348814079546
N           0.86879275970618   -1.51606566110266   -1.57896092794777
H           0.68106143006300   -0.46877396967088   -1.63228505440082
H           1.53789572151669   -1.81272567562276   -2.28091345806269
H           1.25142809089602   -1.66733817880175   -0.59172990681250
H          -0.07287856826212   -1.96040976386400   -1.71720936717800
