    26
        -50.45581278  Gyration_radius:  2.48729721559 Dipole_moment: 2.404
 S          -0.05913826590227   -0.08093069839046    1.67373194655020
O           0.56558339851792    1.13535551914137    1.12936903591631
O          -1.48069301952434    0.07058839171813    1.85721505702151
O           0.26727686980340   -1.22792575962328    0.82772626147664
O           0.58153369567883   -0.33230852903868    3.07843855863037
H           1.54135336714137   -0.26565667885650    2.92140640729515
H          -1.14857592471008   -1.75748024408941    0.23802183452709
O          -2.10806739597756   -1.76940930690004   -0.01202390060102
H          -2.51924166022418   -1.36411313732518    0.76386159809190
O          -0.10023143891491   -0.48294867878711   -3.11488236604482
H          -0.08601043015578   -1.42362688558278   -3.30185682641949
O          -1.58105799765272    1.93340359062122   -0.11907651266179
H          -2.15343901263303    1.71981622584546    0.62858738173676
H          -0.68175114440670    1.76692370603017    0.24853451032058
O           2.91880895139099    0.50468383742571    2.07285333597190
H           3.30457308962362    1.23274223982981    2.56484193672490
H           2.15996312595778    0.87674504417793    1.57525454401068
O          -2.12870480916471    0.06066313154901   -1.73799929984047
H          -1.30896297926429   -0.12540726559565   -2.36556943104822
H          -2.18509019917162   -0.74609710223506   -1.06745944889203
H          -1.90759455558123    0.88943620414882   -1.15662608415381
N           1.71558738093998   -0.11039618612120   -1.30013263720865
H           1.29647440173578   -0.60917753248307   -0.51095768311617
H           2.66250102779831   -0.45079598990652   -1.41011685124526
H           0.66735118889525   -0.30597686112664   -2.46309481804886
H           1.76755231596456    0.86189297562812   -1.02004653890673
