    26
        -50.46824407  Gyration_radius:  2.43038097945 Dipole_moment: 4.585
 S           1.67095332816513    0.06733315856358   -0.69741171555392
O           0.80181026776605   -0.98135007901175   -1.27492914830731
O           2.05373576302379    1.05990774194778   -1.64969492289708
O           0.99925719073219    0.64610175965855    0.47414294355438
O           2.95505086295032   -0.66631592708332   -0.18241248852361
H           2.65665668050941   -1.50820070030959    0.20282151826941
H           0.37124690962408    1.98446407792062   -0.39793219775588
O          -0.16523057246158    2.54279872181780   -0.99765896355150
H           0.44398445253671    2.74461645168949   -1.71409625240337
O          -2.48359263131653   -0.17129980348039    1.06000683126368
H          -2.23560629867803    0.68518023300941    1.46770178841224
O          -1.13986788701820    2.05923507483809    1.74372494396861
H          -1.14145911999221    2.75502074789978    1.08051574695725
H          -0.29936281658286    1.59498889687372    1.63009806374900
O           1.56094163403376   -2.94589570550250    0.22803257254164
H           1.86263972018101   -3.72857055527388   -0.23658591679686
H           1.13404457143888   -2.36052554350156   -0.44025416381827
O          -0.21308920215825   -1.37522565553439    1.78313537814354
H          -1.81926003958813   -0.79487305845153    1.42313953309745
H           0.29003501791429   -0.63515915563242    1.39431134108712
H           0.26437742021630   -2.17437500038266    1.53907608103309
N          -1.53345059931428    0.23857908953086   -1.31245421667270
H          -1.20731638308159    1.23175258563047   -1.31608174268657
H          -0.65898558549416   -0.34808686588313   -1.37076915828423
H          -2.01052407038434    0.03477151421047   -0.34795974900259
H          -2.15698858303008    0.04512797644949   -2.08846609582820
