    26
        -50.45433757  Gyration_radius:  2.45546834745 Dipole_moment: 7.261
 S          -0.76452280846893   -0.41132226212080   -2.32223645800450
O          -1.34590601935510   -1.67167833069420   -1.89379423507383
O          -1.15058490983050    0.10325785971343   -3.58907273319222
O          -1.24888345141865    0.64002034569821   -1.20630290000871
O           0.71657848878338   -0.44434939654955   -2.13313329394308
H           1.48064028399490    0.60806009039530   -1.19183956127290
H          -1.46410184001741    0.05685772565126   -0.44679476846463
O          -0.64491603525635    1.12167926702904    2.46510253199350
H          -0.84653041742750    1.66426135272321    3.22769073161676
O           1.99352349218075    1.14442217139568   -0.52866049331217
H           2.78870495293015    1.42722805456957   -0.98174975765051
O          -1.71334789383851   -0.84212409279069    0.95683546815634
H          -2.66026600858517   -0.95509081227441    1.04782658573294
H          -1.42608704032545   -0.19237050827120    1.62854579107857
O           1.43607781254805   -0.50972804366673    1.61408765428546
H           0.75016132688333   -0.01446523282846    2.08912240006080
H           1.79076721552351    0.11286818299310    0.95446857365538
O          -0.14373342091583    2.58913862083236    0.36647192057696
H          -0.72392581656287    2.19045796627447   -0.30132798935029
H          -0.47253390334020    1.75115412889575    1.70513285990319
H           0.74455241340096    2.28506317395869    0.10731490769163
N           0.59445759022003   -2.16983930701419   -0.27894575875773
H          -0.42438248787757   -2.21567958188531   -0.49919077928125
H           0.89218818776202   -1.54229789789233   -1.10237331405513
H           0.81214916404506   -1.64058429273684    0.60945223430379
H           1.02992110494359   -3.08493919140352   -0.29662964668969
