    26
        -50.46365765  Gyration_radius:  2.44720819779 Dipole_moment: 8.574
 S          -1.46818636709135    1.19976943698523   -1.52577253023963
O          -1.66357368537238    1.26070695889074   -0.08203390709877
O          -2.62926702177363    1.46457423220183   -2.30806062111747
O          -0.42652595363992    2.38199899964420   -1.86348388334102
O          -0.72527935914648   -0.01108708526170   -1.88637012150111
H           0.76119570219375    0.32483221979882   -1.53506592354130
H          -1.04404743437969    3.04349200373826   -2.15218435987227
O           0.74750731971415   -0.34380552164716    2.54127617142627
H           1.05331418697342   -0.11105165148424    3.41786241368760
O           1.70504708822866    0.48004126052638   -1.24591294741477
H           2.10613167217532    0.98970967629661   -1.95071546421817
O          -0.84722962168150   -2.28119979722438   -0.53128696233501
H          -0.92014505873807   -1.55949207040992   -1.19212830850801
H          -1.37934610928650   -1.95024742103273    0.23924739278960
O          -1.85011644757588   -0.92240759704150    1.47435899834823
H          -1.95083735997271   -0.09821655089434    0.95871149992696
H          -1.09288102800901   -0.76978701456093    2.05628954298960
O           0.66972081906362    1.72899134465649    1.00283293046802
H          -0.25137276555551    1.68396689294537    0.65750009482530
H           0.70934978077839    0.51457378206662    2.01532541903100
H           1.21971605109803    1.50224010178400    0.23635278718197
N           1.48979497214376   -1.71926409258409    0.34290766835913
H           1.80246746934530   -0.95807876212006   -0.28481664270864
H           1.31779750867149   -1.31562058709809    1.28758614880959
H           0.50220522795625   -2.06032956346286   -0.04854202698225
H           2.16456041386750   -2.47430919474136    0.37612261100614
