    26
        -50.45346801  Gyration_radius:  2.74459227747 Dipole_moment: 6.019
 S          -0.30975405150497   -2.28809841388972   -1.84291096224669
O           0.82090048408693   -2.57441089030710   -0.95317532013909
O          -1.55105570438620   -2.85895294976172   -1.41553704796165
O          -0.40163018264836   -0.83810348805751   -2.07349907128577
O           0.07515215793462   -2.93477794193926   -3.24038427689105
H           0.96801161205053   -2.63803774908156   -3.39422446751721
H          -1.65823050457142   -0.51745579294750   -0.98896322378754
O          -2.17879943088180   -0.54431246165877   -0.15397652598992
H          -2.63220912983014   -1.39204212870706   -0.22143431466161
O           0.78638725031780    1.23359709105203   -0.87195528973647
H           0.45621067533511    0.58326318764368   -1.52348599843625
O           0.26245781897866    1.28336358526565    2.70361426627193
H           0.19399424356428    1.77695821636855    3.52127428780234
H           1.06615738906012    1.61303877210356    2.24648762376222
O           2.32165193292755    2.15769083421622    1.18243384218430
H           2.49374860350199    3.09578110481958    1.08688419535733
H           1.98707395169529    1.85584329333121    0.31971922961483
O          -1.33809594087979    2.05410616475522    0.52897544672246
H          -0.94661793103990    1.82056624152994    1.38760914655492
H          -0.01295892228521    1.71656306702684   -0.55756452446299
H          -1.95550226148209    1.34324662461966    0.31532093857450
N           0.32294231484974   -0.79999504436067    0.82955167359664
H           0.63267916618520   -1.64104766914196    0.24135094884862
H           0.69292320987953    0.04576500454449    0.32689500205359
H          -0.71719682419909   -0.74841916807943    0.74606415942641
H           0.62176004329589   -0.80412947936568    1.80093024231906
