    26
        -50.47071281  Gyration_radius:  2.41577833713 Dipole_moment: 4.157
 S           1.56648923961941   -0.68886501013074   -1.08629753616045
O           0.74847660240003   -1.86711681336673   -0.85386357139272
O           0.90741183103130    0.35077225337506   -1.83922411578238
O           2.13991652017398   -0.18075167334823    0.16214236087450
O           2.78891778344558   -1.17166743809823   -1.96920675931575
H           3.05156138201419   -1.97429773852751   -1.53191429230485
H           1.79357827772132    1.42980165229323    0.19318586872746
O          -1.39192902195983   -0.37648756858700    2.07584873061208
H          -1.74990776752920   -0.52889006083347    2.95104827646525
O           1.39898032843562    2.31235122420560    0.00299549761048
H           1.36142103709227    2.32473548293314   -0.96014148597540
O          -1.90500132848193   -1.49286396221244   -0.52830156572771
H          -1.91550123454456   -1.24710978611141    0.40629437749549
H          -0.98237062141101   -1.74185190466392   -0.72971058958339
O          -1.71000234979851    0.83807501292390   -1.75689761943050
H          -2.00058845668857   -0.05783173546610   -1.46249233782914
H          -0.77855228513386    0.70112808264571   -2.02413702611941
O           0.81956292092039   -1.71490013699343    1.81539515270037
H          -0.52650639379877   -0.88073490024312    2.03871297994741
H           0.62329174883896   -2.25541018921691    1.03555683709376
H           1.45239132220899   -1.06439689049162    1.44857081415850
N          -1.15071538775811    1.87514594161382    0.54624996842778
H          -0.12064515526451    2.11796870385845    0.43048496721042
H          -1.48093535071943    1.51424957915373   -0.42960436300854
H          -1.25438181440399    1.09474441179833    1.22307318145555
H          -1.68496180640147    2.68420344350613    0.84223222984646
