    26
        -50.46763214  Gyration_radius:  2.56611347321 Dipole_moment: 7.085
 S           0.50687953846510    0.04191826592266   -0.67656925757478
O           0.61669408067096    0.85240901202342   -1.96776725343847
O          -0.90845181235068   -0.36434347565217   -0.50852576141215
O           1.35146451177865   -1.12787556553106   -0.80195917420038
O           0.90494753607430    0.87594078385760    0.45734612175556
O           0.75885053503076    3.52809262553659    0.67973030919341
H           0.94237877845798    2.56703353580608    0.65240066341803
H           0.18001602797624    3.66249983037412    1.43260653100977
O          -2.55514515471283    1.67959597983692   -0.27545696856087
H          -3.31255390035062    1.45182647737369   -0.81745039187533
H          -1.96067823899233    0.89622056569708   -0.29825785295473
O           0.64482459998937   -3.64510090628345   -0.90815970803112
H           1.43679432196480   -4.17648729726116   -1.00239906368084
H           0.92560101046600   -2.71001599272921   -1.05569118567204
O           1.52967959250358   -1.08260650064913    2.05387243120476
H           2.30008322259271   -1.42973131908662    1.59647079973368
H           1.31994124419918   -0.24851631855755    1.56521592438972
O          -0.61553781451860    3.02409962138554   -1.56596669358195
H          -0.07047351583426    3.42706827877507   -0.85567673463928
H           0.12806639726922    1.75247810685469   -1.85966095167133
H          -1.42481596001262    2.70044236045018   -1.11593398774281
N          -0.56443109661550   -2.36280798552493    1.08302151010251
H          -0.20084753456956   -3.10832543242462    0.44750391381181
H           0.25007730945956   -1.95776394678750    1.63151406093395
H          -0.86140092175445   -1.56181604211411    0.43434040866396
H          -1.32196276718226   -2.68423465129406    1.67545233082180
