    26
        -50.46824409  Gyration_radius:  2.43027164399 Dipole_moment: 4.594
 S          -1.50656820754167   -0.41573967501832    0.91818720668449
O          -0.24740996188161   -0.82771890418633    1.57652772321687
O          -2.23234623976802    0.56043016983180    1.66577194587649
O          -1.20060149941875    0.03755477768540   -0.44546068857877
O          -2.37674308877907   -1.71177458461012    0.79329016426487
H          -1.76541870112472   -2.43414802106590    0.56793364411142
H          -1.16143289900017    1.69772280657140   -0.01102382797438
O           2.26564959431331    0.54730221858471   -1.37244111836082
H           1.65838680889990    1.08793901195656   -1.92020213038198
O          -0.88615918939386    2.56415156742020    0.35330956968060
H          -1.48912070641567    2.69398182616927    1.09140655605636
O          -0.16338773390684   -3.26111062488638    0.70144878059643
H           0.00283326135951   -2.39542951450778    1.14248308091782
H          -0.08199963080522   -3.93916992853090    1.37453974586297
O           0.07005716556723    1.78142708000145   -2.32426229555055
H          -0.19284162853919    2.57185827860298   -1.84462216793233
H          -0.48643083908568    1.07086084426503   -1.97752066851323
O           0.69175752274999   -1.60779104380154   -1.43479672008641
H           0.61413676517527   -2.42983292171788   -0.94034762676751
H           1.91223428648279   -0.36211628587885   -1.47414758775514
H          -0.05933295024623   -1.05371520304294   -1.15027618289175
N           1.34709129772725    1.17837613985722    0.96357512609553
H           1.81821682982372    0.92525795676823    0.00785396406297
H           2.03048134213742    1.46923140172109    1.65408463248287
H           0.63000577742115    1.91942829338303    0.79240144210883
H           0.80894262422875    0.33302435440316    1.29228746275126
