    26
        -50.45955990  Gyration_radius:  2.46665130579 Dipole_moment: 7.083
 S          -0.21251330391810    2.18064894616852    0.77923137512592
O          -0.07316612303779    2.21620508749408   -0.66463326490867
O          -0.37360946784908    3.43680321276578    1.43634219631288
O          -1.60554138732696    1.39515765792471    1.05855240661883
O           0.80376060711711    1.29834827104834    1.36618841124734
H           1.91489540827124    1.07635624901075    0.19135891807921
H          -2.02538774168151    2.07534083739203    1.57284404351929
O          -0.01747048315368   -2.49103085065968    0.42652984496770
H          -0.16026317051603   -3.38752793501431    0.73167499055677
O           2.37772347263916    0.99327232347733   -0.67706707944223
H           1.98966078019738    1.71421642853895   -1.18687543932012
O          -2.28699697798162   -0.96034911198083   -0.29479366190514
H          -2.21118750601152   -0.21191887835101    0.31278716747418
H          -1.59781197569136   -1.58835469282159   -0.02923242185927
O          -1.02351649602313    0.34203910654238   -2.25569382282225
H          -0.75787208254315    1.14441224173519   -1.74956796573154
H          -1.69031553846041   -0.10943049593862   -1.69121152255535
O           0.25557961535603   -0.94966166095009    2.51977390492468
H           0.98879098438121   -1.05364069021047    3.12868223216520
H           0.10137553404751   -1.93052868577066    1.24013242550586
H           0.38299487821747   -0.05757121149392    2.10840220067493
N           1.06214300595010   -1.05573646903140   -1.67400700342088
H           1.51863325036821   -1.56024442878595   -2.42505606207757
H           0.17767755772209   -0.51565234850557   -2.02998194742760
H           0.76169624615935   -1.69928956170835   -0.92545445844135
H           1.70072090375910   -0.30186335085897   -1.26892546725983
