    26
        -50.45346830  Gyration_radius:  2.74459001848 Dipole_moment: 6.029
 S           0.07940853842217   -2.58333215817759   -1.43115661113661
O           1.17343526792727   -2.57392172251236   -0.45390470108513
O          -1.11322436163094   -3.22686731553560   -0.97001294347961
O          -0.16424238656513   -1.21482878305825   -1.91282047168017
O           0.62977294628757   -3.39891579031583   -2.67666230425496
H           1.49075604014423   -3.02239483203445   -2.83725247684770
H          -1.51851986732451   -0.87931550575972   -0.95846026256169
O          -2.08669468766908   -0.83153311768307   -0.15603542239436
H          -2.43445801357103   -1.72835680552675   -0.09631853018095
O           0.69374359415805    1.16031643641258   -1.03631014708014
H           0.48472030130247    0.37447811944984   -1.57976473876131
O          -0.06692776240093    1.73818622904997    2.44961923970851
H          -0.24209328697486    2.34462418314060    3.16981304589922
H           0.72093033445812    2.08608453196534    1.97854628568208
O           1.97325437186629    2.59744103526713    0.89453365734420
H           2.04312725553468    3.52053450991456    0.64602268734484
H           1.73331330164620    2.11697867496063    0.08272260459714
O          -1.59924640925232    1.92885851607943    0.10402260665565
H          -2.11394209743032    1.12008914443532   -0.01051658298763
H          -1.24125669147564    1.89359129918854    1.00711317131854
H          -0.17514581203435    1.58478088732773   -0.84676901425528
N           0.35743424442618   -0.60320236165298    0.96899856306147
H           0.80050007144204   -1.48511276593952    0.55035232384550
H           0.65913317678622    0.18652238618129    0.34424032352526
H          -0.67388357463792   -0.69723529571703    0.83122786375338
H           0.59010550663411   -0.40746949940646    1.93877183399388
