    26
        -50.45674464  Gyration_radius:  2.41549589474 Dipole_moment: 7.384
 S          -0.22892047170377   -0.98429235264800   -1.78833988558711
O          -1.13242450600086   -2.05142322787345   -1.32326204192016
O          -0.14864361323446   -0.81282219330551   -3.19554378392284
O          -0.55903417589278    0.25459675204484   -1.05625371271099
O           1.21128373799025   -1.39620229016081   -1.29032446630326
H           1.24487149940564   -1.33157364880944   -0.31213463184618
H          -1.72871053538157    0.56985514885263   -0.05978725990704
O          -2.39501880228485    0.70151231832251    0.67259973808441
H          -3.23364704699448    0.87215430565571    0.24164053947674
O           1.34024831784939   -1.10642979504813    1.36008254630236
H           2.12264792028914   -1.53359536071993    1.71193963490829
O           1.71448536473831    1.41396166403335   -1.74488258438978
H           0.82423396358363    1.03881102736798   -1.60801923285820
H           2.10855079257023    0.87380870100194   -2.43199997732335
O          -0.32634323173644    2.67587459984970    0.87672593051560
H          -1.08176062615236    2.09650252470886    1.04455370517157
H          -0.23812090829859    2.72247233113408   -0.07982027371527
O           2.01024673663812    1.30940589093963    0.95995194247643
H           2.12950148954373    1.37059254336349   -0.00958834491031
H           1.23604886800737    1.88177379014051    1.13652560944078
H           1.59159429497845   -0.11770636567642    1.25471181047145
N          -1.30253326125957   -1.70445789435647    1.16781735894401
H          -1.86215476708052   -0.83173398575783    1.24764568050636
H          -1.70440827555081   -2.46751677723788    1.70069106856805
H          -1.26555279525011   -1.93419663503618    0.07118531702747
H          -0.32643996878228   -1.50937105077429    1.45388530350518
