    26
        -50.45844564  Gyration_radius:  2.42661434586 Dipole_moment: 7.621
 S           0.92255623173053    1.72521605284994   -0.43768845542547
O           2.20356847696220    1.06084739279851   -0.10453432845285
O           0.98453470199701    2.53346550536777   -1.61158065136274
O          -0.13979259037142    0.72143606439177   -0.45407648228012
O           0.57445387116103    2.63132035393841    0.81262952071006
H           0.18921977186574    1.99927386642728    1.44287507396139
H          -1.37116121513542   -0.02350435667167   -1.07289780366068
O          -2.13041506433317   -0.61350618419518   -1.31619172885551
H          -2.59499590859445   -0.16629674939278   -2.02488449266934
O          -0.51352453932795    0.63325689526460    2.41450072331326
H          -0.80642944068123    1.00880043334181    3.24710362830223
O           1.74175780213440   -0.15388839209975   -2.46614461280685
H           1.29305532679804    0.59636185735213   -2.86667052205677
H           2.17928687717735    0.23193270240529   -1.68943440682993
O           0.32073509670400   -2.08723494756830   -1.15816484567979
H          -0.59693654600825   -1.79894574481082   -1.26789528857697
H           0.84187372657554   -1.50559956627919   -1.75246942718133
O          -2.71425272482965   -0.40902431161613    1.32702170418716
H          -2.90505200415608   -1.31026800203821    1.59331051107897
H          -1.33248719552608    0.34418550130661    1.93970619540741
H          -2.59192015109510   -0.43731016055696    0.35514117922635
N           1.29392422158108   -1.02798709895809    1.04943709210135
H           0.83646755809985   -1.52861604289770    0.21797540598862
H           1.79481535097349   -0.17400245515485    0.60477607788612
H           0.58203497511593   -0.62043372575072    1.66781305924654
H           1.93868337117682   -1.62947888746154    1.55034287443052
