    26
        -50.45869645  Gyration_radius:  2.39081167967 Dipole_moment: 8.409
 S           0.74843819533205    0.32767605166868   -1.89071165075758
O           0.05504858718764   -0.70856336385081   -2.62173013372281
O           1.05283994229585    1.53707358064517   -2.59138487584275
O          -0.26425880775253    0.74773739163481   -0.70730335876859
O           1.90695556614883   -0.19847365437051   -1.13893879526192
H           1.54874881266754   -0.99707821002361    0.09551291716530
H          -1.12723359495070    0.32097712798141   -0.86387987437318
O          -2.57681781025701   -0.60099678026554   -0.69964551265023
H          -2.97505992652683   -0.59411453495109   -1.57160232166076
O           1.30354515782533   -1.45283018759142    0.96713676620660
H           2.06891121986346   -1.98041080419352    1.20126887835401
O           1.93637866134180    2.16217986853432   -0.03854328938038
H           1.49987090907386    2.61592343908032   -0.76957515949197
H           2.15938419935347    1.29862883280720   -0.45182019590552
O          -2.13948383933469    0.57851039668561    1.76640561287865
H          -2.41551337061525   -0.15657129505600    2.31777600470916
H          -2.38359629051198    0.33074162845617    0.85876752033511
O          -0.72195079604591   -2.41427381058249   -0.78154164541909
H          -0.08231185657880   -2.26571768142179   -0.07088436168940
H          -1.99588944824346   -1.41519776634529   -0.67237235516972
H          -0.35936882917797   -1.93847804439586   -1.56554109428101
N           0.55043907372781    0.97313683188036    1.87360845510376
H          -0.49152506978354    0.96847898644956    1.77282120628064
H           0.87470967391821   -0.00571418392227    1.68446969193595
H           0.99438626803139    1.57201287162985    1.10440588641003
H           0.83335337300127    1.29534329951552    2.79330169503115
