    26
        -50.46364558  Gyration_radius:  2.47127887578 Dipole_moment: 4.531
 S           0.80679859125103   -0.18118541729337   -0.62982124503932
O           0.89959071269232    0.55127717963654   -1.97575677894688
O          -0.22824351049570    0.47536498251780    0.17629789703193
O           0.51136287901206   -1.58284394910180   -0.83838511579954
O           2.11766804133352    0.02340458018621    0.01258750464325
O          -1.90468293159182   -1.87739765395884   -1.81259233292885
H          -1.02256972645382   -1.81770846537985   -1.37833088722317
H          -1.88998353798347   -2.68778941279118   -2.32472694816849
O          -0.03318948336974   -0.05157305532863    2.75545981922531
H           0.48156103967230   -0.88334468127526    2.65785366206381
H          -0.42973419441591    0.07207829503399    1.86812140422045
O           1.50773130644795   -1.97120139398906    1.71887115720969
H           0.98846713082784   -2.49918475033935    1.10355040528888
H           1.98024318166333   -1.35249997293727    1.13686610795117
O          -2.43333980218490    1.63706459192705   -0.75396107757063
H          -1.61702635565663    1.27482184762075   -0.35205574900753
H          -3.14367979721990    1.06065576410447   -0.46428106748493
O          -1.42937660373787    0.49224081196190   -2.97125369736292
H          -1.72508832624313   -0.40382842630142   -2.70033977630252
H          -1.89008220105931    1.10095255285457   -2.35627008787029
H          -0.01314399335958    0.53967927991375   -2.44347168768452
N           1.71444482639403    1.65383582293135    1.93463190238776
H           1.97359758346386    1.03725912369857    1.07206201908733
H           2.53316165017759    1.87980421719864    2.49028020973280
H           1.24510415325287    2.49324379811095    1.60832313093090
H           1.00040936758381    1.01687433100145    2.46634123161600
