    26
        -50.44216300  Gyration_radius:  2.5030080873 Dipole_moment: 6.498
 S          -1.64624461502116    1.15875768403710   -1.16730640848372
O          -1.08136098193991   -0.12359767122366   -1.48874639524967
O          -2.98105911872984    1.41000171596807   -1.56206240786620
O          -1.48442775345800    1.36299097231031    0.38691435067567
O          -0.72067061623192    2.27736599456460   -1.68534308803592
H           0.22324153086834    2.04857026921685   -1.44817416184389
H          -1.81177710058641    0.54216696653644    0.86228627618891
O           0.51515852134017   -1.35899226342766    2.08224063278439
H           0.93208615735779   -1.98733607170764    2.67250216855816
O           1.71910709015106    1.78591476061371   -0.93399118747834
H           2.21289415259823    2.60827794663634   -0.94209441231574
O          -2.05846782301651   -0.68998438306535    1.82166779839263
H          -2.41765287189611   -0.40228297398929    2.66364555133595
H          -1.13851439452879   -1.00244397068497    1.99039513623499
O           1.52518210849082   -0.65284456070411   -2.39875559157214
H           1.89912022637989    0.15578854637945   -2.03296491630136
H           0.56738027419987   -0.53356585061507   -2.32738261980913
O           1.04999571085021    1.26822883603079    1.53544531048306
H           1.00982360662228    0.32426389818184    1.77762189835899
H           1.58483307589354    1.54460959089021    0.02481417106708
H           0.13279465460112    1.52504582462070    1.36474865938300
N           0.40764886568469   -2.32589331066896   -0.30664405750576
H           1.19359102957932   -2.06896352786744   -0.90161186009449
H           0.20614036118438   -3.30564039081027   -0.46256607496761
H           0.54024239898896   -1.77409781994200    1.13969964857033
H          -0.37906446935607   -1.78634021143233   -0.66433841045949
