    26
        -50.46232571  Gyration_radius:  2.48770801359 Dipole_moment: 3.578
 S          -1.02011027952227   -0.13529966705763   -1.94761285639489
O           0.41129026096657   -0.34045348089397   -2.22977499007818
O          -1.80934685863469   -1.31282444380264   -2.09781690040240
O          -1.16338056329805    0.48472558649217   -0.62009367428680
O          -1.50874291991674    0.94416751998940   -2.98898916044138
H          -0.92667269366630    1.70250250445882   -2.90562616777106
H          -1.19579483329425   -0.96478656073047    0.16501961875726
O          -1.02052974883559   -1.86714408560427    0.51682196703646
H          -1.44494502282688   -2.43875784761545   -0.13062827260338
O          -0.34809581128588    1.37084676645806    1.88579215752668
H          -0.80690571838794    1.14938602001198    1.06232518698852
O           0.80785440481157    2.16724703186873   -1.46257004511874
H           0.01826739884914    2.06544374275964   -0.91456193383384
H           0.91339768617710    1.30076707419376   -1.89459911333779
O           2.05961178503290    1.25494115109816    0.83793406689298
H           1.90592218550083    1.78452665954392    0.03414814185274
H           1.25190770807706    1.41127220419644    1.39235579617386
O          -0.82224854126913   -1.03978224039062    3.12986915762656
H          -1.62988893152433   -1.11097673500578    3.64066556647219
H          -0.47172654160683    0.60369823383793    2.47375712255535
H          -0.97725714463307   -1.50259890342313    2.29047685850872
N           1.57528010468232   -1.13222421188421   -0.03391368697114
H           0.77514307184799   -1.55909617315583    0.46241179731604
H           1.84898729105078   -0.17032286161372    0.41325625519001
H           2.36758544873707   -1.76403904372047   -0.07467360125812
H           1.21039827324859   -0.90121822965924   -1.00397330077200
