    26
        -50.44654999  Gyration_radius:  2.48612617514 Dipole_moment: 5.489
 S          -0.52513372561673    1.40872967420913   -1.62427178317733
O          -0.17348505991883    1.89193604672848   -0.30658073045714
O          -0.87739255608606    2.37546523164361   -2.59244799073114
O           0.64347600456277    0.55465189976817   -2.16717067857597
O          -1.67370714851521    0.37673205529410   -1.46123743606754
H          -1.81359411631751    0.08975037983956   -0.50282408517084
H           0.90696935986415   -0.13326355230956   -1.49250981446245
O           1.22340597426321   -1.39457574945545   -0.56562009958173
H           1.89659196419437   -1.91997742448385   -1.00225760504255
O          -2.16093133881057   -0.42089676488063    0.93379320684472
H          -3.01584985569765   -0.06517509190419    1.18355212447539
O           1.91509688228537   -0.15494805631162    1.86562671638114
H           2.32068952197966    0.63115354540829    1.45912099526734
H           1.70712093260340   -0.72979792266079    1.11596368548524
O           2.44336922641218    2.05059889540666    0.32399753935425
H           2.64110313310550    2.95436942652094    0.57342750056523
H           1.51383004035810    2.04343661235213    0.02893492435523
O          -0.46620958371736    0.97015847311170    2.24305354705543
H          -0.35920856692261    1.58106518499123    1.49783982447255
H          -1.48505633584208    0.05510879877344    1.52672008829288
H           0.40127472727926    0.50039817048682    2.29885107097684
N          -1.09157102838477   -2.62563396404243   -0.68565602865806
H          -1.52806143072411   -2.34349240317593   -1.55509262805468
H          -1.58600435724711   -2.14904002799933    0.06345046099737
H          -1.21995437939293   -3.62265311754650   -0.56941742878920
H           0.36323171630087   -1.92410031974926   -0.58924535571321
