    26
        -50.45989254  Gyration_radius:  2.45059926403 Dipole_moment: 8.204
 S          -1.28415407900729   -0.23465466140511   -2.03236864268959
O           0.18955378891248   -0.37793248102438   -2.14338120947615
O          -2.00303676925577   -1.19683222666877   -2.78953886803535
O          -1.63859569303924   -0.21772045286294   -0.60631950964273
O          -1.60764215825361    1.20432240772158   -2.57652626777702
H          -1.05440153953713    1.80013090689216   -2.06887386714691
H          -1.28895400144090   -1.30081249197904    0.47238677351803
O          -0.93153512780607   -1.97278646470120    1.12047105100812
H          -1.59189329104816   -2.66524859038799    1.16805453329544
O           2.18605324840567    0.54542241648805    1.14788892605363
H           2.91994092418048    0.73970790804578    1.73130673418335
O          -1.36869042654646    1.95652319596451    0.91844795109587
H          -1.69908209116383    1.20167576267889    0.39585397026172
H          -0.65111957035898    2.31761079104340    0.37569610450340
O           0.71356922469660    1.89791095235656   -0.91420615230842
H           1.37723014809271    1.68878693627999   -0.24290371753648
H           0.64219384331360    1.08680532706809   -1.45401289437161
O           0.01184020081350    0.35180207977817    2.51285589593835
H          -0.39071974850493   -0.49702889808795    2.28635354736751
H           1.35989417518741    0.52261771325925    1.73077619073698
H          -0.56220511771065    1.03251053198706    2.07896893596051
N           1.35875205949267   -1.60267764370651   -0.21605329811528
H           1.99466033627232   -2.34130075368306   -0.49465600912227
H           0.88989943478128   -1.14767587074208   -1.08148757763042
H           0.57780442053068   -1.95669934512355    0.37963525356989
H           1.85063781900241   -0.83445702918531    0.30163214636022
