    26
        -50.45787531  Gyration_radius:  2.38119091373 Dipole_moment: 7.851
 S           0.47567325039274   -1.38115424340583    1.03433308463472
O          -0.76550439180971   -1.80196707970314    1.70398806405087
O           1.53463864780198   -2.34051590377048    1.04318319425623
O           0.13778489158617   -0.88319806176112   -0.30249895919831
O           0.98069833345301   -0.13193097098606    1.86082685967618
H           0.52048538954881    0.66700152809727    1.52553076380471
H          -1.28688963298956   -1.01798488919047   -1.07377952682777
O          -0.27728446158613    1.97172378117107    0.83169112860736
H          -0.08183377114268    2.79253535627811    1.28681980220265
O          -2.22346799452381   -1.00136482974913   -1.39829045398457
H          -2.47418799868503   -1.91847066997908   -1.51911760312557
O           0.36598439106367    0.21304380285363   -2.77905870677445
H           0.49466537118450   -0.35472539960575   -2.00169921934438
H          -0.58255991707846    0.23848808030843   -2.92490064652129
O           3.03225216764987   -0.35353198004867   -0.03832916645696
H           3.63244951086790   -0.18425320714220    0.69082740222099
H           2.51126367325482   -1.13089242793876    0.22863382626119
O           1.55926145733981    1.79665125374283   -0.92027335191362
H           2.14251335277685    1.07911563865749   -0.59768033338100
H           1.18635546877231    1.43673417319686   -1.74739684910750
H           0.40214328670986    1.91851992535568    0.06509253175656
N          -2.29040181655679    0.10381337527132    1.02039298042593
H          -2.55723036465722   -0.20602166695387    0.05726751260021
H          -1.65605847687304    0.91802853748005    0.93637919601822
H          -3.09462409704214    0.30978451923134    1.60271672910779
H          -1.68612627949079   -0.73942864372222    1.41534177144098
