    26
        -50.45453319  Gyration_radius:  2.50773167483 Dipole_moment: 5.093
 S           1.21238955083808    1.64211760962622    0.68767948356854
O           1.24556493709717    0.35763290659963    1.39803178313821
O           2.08578031144880    2.64409603574263    1.18939360150888
O           1.66754644771380    1.24983275046721   -0.79634523750058
O          -0.18398870897615    2.08644898831210    0.53109779343706
H          -1.07222352872240    1.38372520988442   -0.53693409269899
H           1.77599504020799    0.28994793639993   -0.73669568240263
O           1.52818874242189   -1.47767739503717   -1.32188925913531
H           2.30126395733927   -1.79522876033459   -1.79146387922768
O          -1.67179638050369    0.80389966340379   -1.09608898188910
H          -2.49665135078235    1.28470172734496   -1.17817009682606
O           0.20561956669779   -3.16498209767971    0.39307106410423
H           0.85142445434719   -3.41285261971195    1.05709267047231
H           0.69192463189394   -2.63845629746556   -0.27136640070263
O          -1.79610436740934    1.24788934444132    2.51036092289168
H          -1.56977536158887    1.69048822371203    3.32874219625771
H          -1.23177524569296    1.65986751812889    1.82266011491052
O           0.17389161391785    0.08270047782444   -2.95098340154061
H          -0.62510054639023    0.28731444514527   -2.43029684821379
H           0.75543573748860    0.83865777563655   -2.81406852572699
H           0.95374648402388   -1.03643718847738   -2.00216890021158
N          -0.98870082194902   -0.83335201736922    1.00251351459198
H          -1.58127024517911   -0.54792332735620    1.78860389915048
H          -1.38364637759131   -0.43475603169946    0.13408602706762
H          -0.02891617624708   -0.35564573647879    1.17556017271349
H          -0.81882239437794   -1.85200914120162    0.90757807220693
