    26
        -50.46811936  Gyration_radius:  2.53608919691 Dipole_moment: 5.663
 S           0.03782176079771   -0.62556860403288   -0.64719194992324
O           0.53347912225105   -0.52819322761673   -2.09153403156239
O          -1.42545181269206   -0.61033494912046   -0.63412431387144
O           0.55818454421363   -1.84910981970394   -0.07080202123244
O           0.55526771345419    0.55041871317881    0.08471014947172
O          -1.71923204142091   -1.81486576720796    1.65676761496906
H          -1.30558162100788   -2.65581443086840    1.44317033032628
H          -1.77629362294224   -1.35370774865291    0.78464405004250
O           2.21224758024688   -1.98522186661706    1.95486014069025
H           1.72145915135642   -1.95979528155863    1.09780076692664
H           2.41220242148238   -2.90810223984955    2.11800695917203
O          -2.46016785657304    1.64783623875494   -1.50701580197243
H          -2.12309977193527    0.81874541819386   -1.10053817385676
H          -3.25983816534753    1.40498022370276   -1.97695273646372
O           1.61124741970260    2.67564075367653   -1.14315438012554
H           2.50489859665072    2.40357141571665   -1.35897786456145
H           1.23391021635785    1.95844057486941   -0.59458489670052
O          -0.18858155697326    1.74509882613945   -2.91816419553154
H           0.43963434517882    2.30274298618926   -2.41354169261270
H           0.23003833350042    0.37569612758597   -2.48895357195008
H          -1.06066564748097    1.86960207402788   -2.48188691111007
N           0.25139844937503   -0.27572164066949    2.50175188562575
H           0.39737694427013    0.21550728862281    1.55800590291480
H           0.15026999707955    0.38035039215197    3.26823294482661
H          -0.60916617232891   -0.87935488074337    2.35234896751179
H           1.07864164279203   -0.90284057616718    2.60712283898655
