    26
        -50.44596050  Gyration_radius:  2.52169797443 Dipole_moment: 3.874
 S           0.05375717692957   -1.08921052246401    2.22474418777657
O          -1.32057049106389   -0.72525090421956    1.96107045273827
O           0.28823053743126   -1.99384264129300    3.28538519721250
O           0.64746613127050   -1.62896800663231    0.88862154315186
O           0.88222508910072    0.19447789247733    2.46842438545978
H           0.94669307782424    0.72441608971632    1.62168605801686
H          -0.08791286224202   -1.55594726378667    0.19104363638108
O          -1.33579895626904   -1.32222234467871   -0.67573925174940
H          -1.94891162571592   -1.38211322898350    0.06592380677828
O           1.22623240591926    1.47293959267996    0.25135610707856
H           1.81416402063175    2.21457542837968    0.40251168706355
O          -2.47361628396112    1.57087153357049    1.20909402388364
H          -2.05174310268557    0.76745153333526    1.57320856997751
H          -3.31334560998007    1.66135155579993    1.66050641029844
O           0.21271260785931   -0.47989003866747   -3.02478888659220
H          -0.30721354677452   -1.21516047953057   -2.68660043516258
H          -0.27026500651095    0.31564319566982   -2.77223518986508
O          -1.13783299676873    1.27215801021543   -1.11110313804905
H          -1.29591255416852   -0.35080708757051   -0.89867749571142
H          -1.78855997550815    1.56080252583314   -0.44658136311057
H          -0.27945615950011    1.47595200541345   -0.69957655842582
N           2.38892365329103   -0.34607899353084   -1.15382402992950
H           3.34476940259658   -0.29159602178173   -1.47931291281719
H           1.77406369793820   -0.44710479899935   -1.96499409845078
H           2.28440003196215   -1.17714940481552   -0.58300057703159
H           1.74750131840908    0.77470235386089   -0.30714210891912
