    26
        -50.45612323  Gyration_radius:  2.45584324072 Dipole_moment: 8.964
 S          -1.55732287614156    0.38817791956072   -1.37196910769099
O          -1.75075303084192    0.21228296750240    0.08195168319081
O          -2.47781522256801    1.33730593870006   -1.91799182449103
O          -0.08388324417225    0.99646662467748   -1.50445723687974
O          -1.46629813004118   -0.89973192340199   -2.03580638314027
H          -0.45357004362128   -1.95300872415944   -1.54577654146184
H          -0.23572259629363    1.88472486104508   -1.08772053344545
O           0.19217362968767   -2.62771480411712   -1.16555181188778
H           0.06191629606828   -3.42204589852000   -1.68540747486240
O           1.99240905728243   -0.11862912545892    1.50662640385356
H           2.86322154808478   -0.21537108032688    1.89360056061401
O           0.10284178138767    1.91404812481714    2.08977074147674
H           0.77570255849327    1.26002378388737    1.84932507743392
H           0.55689572385118    2.75449402257664    2.17650537772518
O          -1.08641739996282    2.97518408755024   -0.21897540302579
H          -1.88985340422328    2.66251105984473   -0.66306829970997
H          -1.04547748456156    2.52889387913403    0.64462884909814
O           2.06857879647240   -0.59413629019956   -1.04806927953889
H           1.62063611340321   -1.44504524572653   -1.18356663600445
H           1.43327356903097    0.06651790487106   -1.37580549416078
H           2.10505820742303   -0.24342845821698    0.51918476913155
N          -0.33473635864982   -1.52065607129570    1.23879191533463
H          -0.11117111206586   -2.18124329738749    0.47138078260210
H          -0.98247053970351   -0.73846170010574    0.76728860061830
H          -0.82684718659058   -1.96828395068490    2.00279925568556
H           0.52963132825157   -1.05287462456585    1.56231199954748
