    26
        -50.45612333  Gyration_radius:  2.45574396213 Dipole_moment: 8.950
 S           0.53861129595001    1.65125277369086    1.19937563746382
O          -0.10989793306151    1.75920101957624   -0.12350263340330
O           0.11373861678963    2.69188079114289    2.08425311836544
O           0.01277829474607    0.25897242870426    1.78549538778521
O           1.96929518860197    1.45274116801158    1.05372114391636
H           2.50608764092144    0.31214130496498    0.16722144067401
H          -0.94528531323698    0.48652486565157    1.91204015173577
O          -0.86414862821730   -2.06230650371675   -1.12111687729916
H          -1.05482385043586   -2.95534675368807   -1.41014626991742
O           2.81319936124118   -0.41854891644847   -0.45615104826812
H           3.76881587604227   -0.34993253185221   -0.47370241036493
O          -2.27645406707027    1.41080886105631    1.70710735895112
H          -2.38757665357176    1.28479803313688    0.74889046913428
H          -1.71780419452414    2.19428015030057    1.82809447636569
O          -2.75344277565590    0.00490644739829   -0.67430931109703
H          -2.12028206810303   -0.72206938385336   -0.76849333623240
H          -3.52365093479170   -0.35890629322248   -0.23324313363076
O           0.94401051393012   -2.07050417863029    0.74682524366839
H          -0.21933449858805   -2.14205485719247   -0.35881253924662
H           1.75287829326542   -1.71005518173199    0.34830335393568
H           0.61797307690089   -1.35360443817516    1.31879462528606
N           0.59301008496307    0.11241283196521   -1.89575261180292
H           0.24781663234422    0.86160723799038   -1.13885474965078
H           0.57069987631663    0.51747636430494   -2.82402318219851
H           1.55293235800405   -0.14465459331571   -1.59941684379217
H          -0.02914620274792   -0.71102065608578   -1.82259749036947
