    26
        -50.46364555  Gyration_radius:  2.47127018388 Dipole_moment: 4.535
 S          -0.97569818008542   -0.35479259166934   -0.05973033531555
O          -1.94547911071511    0.25281435017149   -1.08317370163988
O          -1.69815391005076   -0.32121246374530    1.22467903983623
O          -0.61147637012030   -1.70076770359665   -0.44863150349107
O           0.19937196361332    0.51881035955644    0.02954352116223
O           0.82685805084663   -1.66897004784949   -2.64014839187261
H           0.35487706576358   -1.72198083628885   -1.77717452152566
H           0.66453630184746   -2.50580784917219   -3.07901684023269
O           1.60455300126222    0.15532049441945    2.23431677244464
H           1.39569108054350    0.27756361791569    1.28493338205769
H           1.28128397179043   -0.75419589783416    2.42042256481742
O           0.11333283506395   -2.06017942566768    2.20287820989571
H          -0.70583244713492   -1.57083207418034    2.01764037947344
H           0.27281350715278   -2.54072659294996    1.38399222627734
O           1.24021756862459    1.95215359119449   -1.95560791521999
H           2.07627474885379    1.52111777613552   -2.14483305030518
H           0.87615965301477    1.49250407964644   -1.17130539657247
O          -0.62975546340813    0.50122070761941   -3.23411647710607
H          -1.47606609995535    0.35595688656238   -1.98915513375315
H          -0.01610891843553    1.21998938092013   -2.97419668854465
H          -0.08121061971081   -0.31266948232954   -3.21259228015297
N          -0.56521780816266    1.48798703597136    2.62427420744117
H           0.42277266882736    1.01658642369522    2.62759522994484
H          -0.94535752763985    1.61632885363985    3.55652535685910
H          -0.52173446586722    2.36712644281141    2.11776241600921
H          -1.15665151592067    0.77665495502343    2.04511890951251
