    26
        -50.45844159  Gyration_radius:  2.43465113832 Dipole_moment: 7.230
 S          -0.77546809371743   -1.99123729866711    0.28945184663926
O           0.60638243005552   -2.15339948318750   -0.20742509756966
O          -1.45311364127596   -3.21539207793610    0.53440973447292
O          -0.79966564751575   -1.02708064420503    1.39477090745343
O          -1.49616114868617   -1.22539189415866   -0.91702311829959
H          -1.87598988655073   -0.39996131590417   -0.56281958004455
H           0.74253183114316   -1.07172418882665    2.00589803696964
O          -2.30918856030883    1.30660541938780   -0.42600437896692
H          -3.19965084408804    1.46162286163473   -0.10849287444336
O           1.72666260100761   -1.06299824279550    2.04996504566983
H           1.97321194537962   -1.76031314934208    1.43268746954159
O          -0.85209499518648    0.87033170301041   -2.68911534281186
H          -1.25942602816006    0.01666962218450   -2.86896122325409
H          -1.41417912613035    1.27097347905089   -2.00353507254733
O           2.03791961580318    1.28064250759669    0.95780895394238
H           2.77305512031529    1.75955048917947    1.34135264199828
H           1.97965075452308    0.40802907645637    1.44906031530177
O          -0.68164698132438    1.62061098765250    1.57136472708232
H          -1.69961865350107    1.55480402656009    0.32504699234412
H          -0.77457360374288    0.65898491655611    1.72698826470856
H           0.25805761291641    1.74822714263987    1.37349691205408
N           1.30932893318980    0.00760165419764   -1.34518972875129
H           2.08025284280048   -0.16786829925822   -1.98153645062836
H           0.49273249971010    0.40943853737046   -1.87616576536696
H           0.99802772065015   -0.94326000626895   -0.87987709230561
H           1.61296330269304    0.64453416707948   -0.58615611318373
