    26
        -50.46146055  Gyration_radius:  2.44317280974 Dipole_moment: 9.677
 S           0.47913017604898   -0.48941001715333   -0.50690483483996
O          -0.06735031785998   -0.35955857985398   -1.83364265874516
O          -0.30857406729904    0.41783272223917    0.49261684118942
O           0.37334355459661   -1.82891110108597    0.04981612607639
O           1.86715609590507    0.01295354776350   -0.42670812737139
O          -2.34603649515858   -1.54916134700526    0.09955117553153
H          -1.41663793532611   -1.80675349653658   -0.00945249496329
H          -2.37276736897506   -1.00542920191728    0.89005363048422
O           0.76614013379787    2.13796107321982   -2.15482643698003
H           1.64645267466987    2.10333347049525   -1.77542711019476
H           0.50497691247059    1.20364677032680   -2.25735118428562
O          -2.72774445325467    0.19070602315047   -2.01198060078813
H          -2.91878404620760   -0.45826907579205   -1.31255835630666
H          -1.85470620280780   -0.08060591819438   -2.33387054620677
O           1.33581319327602   -2.21391221759026    2.42625952068780
H           1.93021705745389   -2.96397837787694    2.36476226063964
H           0.88395346566868   -2.15973159247689    1.54279816087229
O          -1.56039356808955    2.17900342052794   -0.74288817207169
H          -0.85310748330657    2.46155954791630   -1.35291281910371
H          -2.15636745472727    1.57983309421882   -1.26971124470796
H          -0.85306263840066    1.18076653469688    0.00360875136165
N           1.95417419010915    0.31308478039279    2.06405551864198
H           1.08701132764921    0.82662334004258    2.21647516147855
H           2.74915353974363    0.77182629859427    2.49642404627680
H           1.81962145332566   -0.68453704425112    2.39564341094763
H           2.03838827669777    0.22112734615471    0.94616997237835
