    26
        -50.45954389  Gyration_radius:  2.46005570249 Dipole_moment: 8.187
 S          -1.38914921623029    0.62161208129427   -1.36662334079971
O          -0.34288957440597   -0.30421974069036   -1.84306650905767
O          -1.77304622969381    1.59304697822910   -2.33020920534503
O          -2.62599985064375   -0.28177646623192   -1.01856527145436
O          -0.95560749650600    1.19219248880609   -0.07543880894385
H           0.36917551493071    1.53709436512175    0.71188137124857
H          -2.32761453851450   -0.80069371634384   -0.25055374800756
O          -1.95587434461105   -1.60802443771127    1.25960302450740
H          -2.75913850626469   -2.06164992819358    1.51991866553013
O           1.20599821509484    1.72409864793710    1.21951480611247
H           1.51518416415808    2.56588599946752    0.88020098719765
O           0.41428984902215   -2.05651277967007   -0.09745902819305
H           0.08007211537704   -1.49641454187496   -0.84692935635232
H          -0.31724254286841   -2.07170301175936    0.53568634307797
O           2.04140703613747    0.59428064532261   -2.24857568495772
H           2.29038627072568    0.31129169098162   -3.12946889778841
H           1.07901708815568    0.35474388515498   -2.15782059848078
O          -1.81096640441688    0.77514226082103    2.35058483456501
H          -1.63159522129121    1.07900773873720    1.42944657263301
H          -1.91670470939083   -0.77262419332823    1.79388705567148
H          -1.03690342420464    1.03531928354993    2.85483086878376
N           2.40380993697916   -0.39746242935518    0.18010116712188
H           1.64574965840888   -1.15780812129252    0.18678192384497
H           2.47040601082934   -0.06932556464709   -0.81796615706086
H           2.03688919231138    0.42922854872897    0.72448017366199
H           3.29034701691856   -0.73472966306194    0.53575879247937
