    26
        -50.45724307  Gyration_radius:  2.49606999118 Dipole_moment: 7.212
 S          -2.23853946685264    0.90991107477636   -0.00985152410869
O          -2.21723034191913   -0.34295982778518    0.77417109684644
O          -3.27462151952714    1.80510427451299    0.36258492259227
O          -0.88213898279478    1.48699557074463    0.00727588811383
O          -2.46836306285697    0.46499235415007   -1.51214921628065
H          -1.62744676876310    0.09863191813908   -1.83976974279673
H          -0.25059876025477    1.02810713209301    1.37752639791663
O          -0.14903486310262   -0.63177034813023   -2.47117600853793
H          -0.17664005436023   -0.56644258351595   -3.42653048663904
O           0.19635685883323    0.71641541514402    2.21192448441997
H          -0.51118974737210    0.64045490068447    2.85382152116177
O           1.45596974397738   -1.54801337755871    1.48062964812381
H           0.97293008576073   -0.81279347566533    1.91844872028490
H           2.23314867731397   -1.12621631583859    1.09859785521869
O           2.66014465598139    0.97449392409508    0.87627664677057
H           3.22513168169106    1.72984594371222    1.04507413878875
H           1.87087871915364    1.08968986062988    1.42940189837977
O           1.25482998197988    1.29753820539552   -1.50267555511705
H           0.46171225586737    1.58675146235377   -1.00185175928671
H           1.90847627063486    1.09626172346464   -0.81230493287477
H           0.48193356628333    0.08697054092007   -2.15648516079976
N          -0.57615434745234   -2.02535083840827   -0.15614725342564
H          -0.36577977167765   -1.72386256272841   -1.11718587754117
H           0.28741461434571   -1.95280817222974    0.44754108316774
H          -1.32078143290262   -1.31464736537400    0.26561170735963
H          -0.95040798193904   -2.96729942361242   -0.14275852171746
