    26
        -50.44427382  Gyration_radius:  2.4423063969 Dipole_moment: 5.003
 S          -1.86226382981477    0.91478539350028    0.03490462977316
O          -2.43577162308856    0.28566822563506    1.19295154078096
O          -2.44334385387320    2.12425760647654   -0.43619905763606
O          -0.35880552898409    1.16867949937357    0.33641603687846
O          -1.85491705139667   -0.08961060731521   -1.13529759081034
H          -1.14291758076527   -0.81554693982428   -1.00965819385894
H          -0.05780082289569    0.76350199957346    1.20014431813486
O          -0.00447229552638   -1.78231022631464   -0.88619951519114
H          -0.04456814626058   -2.39748554134122   -1.61994851435037
O           0.37538282836640    0.05893621670504    2.56450169057232
H          -0.14716604295962    0.46693807168967    3.25798815233097
O           2.84084784214575    0.04075428047743    1.16483581018600
H           2.07286150800941    0.18779328411487    1.73305547791872
H           3.19424788377566   -0.81678211734290    1.40804524487127
O          -0.44168455336591    2.03281293382329   -2.34351962347942
H          -0.97565611863922    1.67115786135832   -3.05403430032193
H          -1.07048849764123    2.26894205323504   -1.64640720638403
O          -1.01579004293205   -1.93668731576941    1.69227764447313
H          -0.07070770781136   -0.81551171758462    2.35840167043097
H          -1.74676643013576   -1.30507508568086    1.54915506374204
H          -0.63034174190995   -2.10614229873692    0.81824834292434
N           1.62550584249013    0.05789135409214   -1.48171033532473
H           2.14317408536878    0.26990427391196   -0.62901705874232
H           2.28431134388682   -0.05399944490704   -2.24135821683123
H           0.74801616535694   -1.04509552532400   -1.13796746166847
H           1.01911436861222    0.85222377617078   -1.68960853843728
