    26
        -50.46812756  Gyration_radius:  2.40074395907 Dipole_moment: 4.909
 S          -0.91213294941997    0.28076664521651   -1.17616098203656
O          -1.88126561925635   -0.77187014491354   -1.32079427109529
O          -0.56782217172906    0.99303865618816   -2.38288208612281
O          -1.24715666445236    1.21439024520611   -0.07861405432387
O           0.43841870098091   -0.39131547658774   -0.66914740303128
H           0.32302792288057   -1.38592604773837   -0.73476426749144
H          -1.22957862242530    0.40419850177729    1.30164888395438
O          -1.10449464832133   -0.07923396161415    2.16066176023468
H          -1.70769394941348    0.32345785911564    2.78741838841734
O           1.60161411473799    0.09353232403128    1.91154434168362
H           0.67572996623040   -0.03261563965815    2.19891522133134
O           0.05539590203078   -2.93133104616138   -0.73935937881653
H          -0.66086222938328   -2.92673301502481   -0.05063492907382
H          -0.40118068102495   -3.10137828834730   -1.56699826668788
O           1.90840815300042    1.69018833510124   -2.14418746903196
H           2.37979897293060    0.86373141020389   -2.26663732949590
H           0.96270846242316    1.48767599073064   -2.37498036372886
O          -1.98242030271566   -2.36486962133422    0.81590075301122
H           1.73807707238383   -0.57489785406660    1.23263826520084
H          -1.68712623838788   -1.74467621225404    1.49914631637429
H          -2.20827240300142   -1.80404251740157    0.04705301152472
N           1.11925434749606    2.18195014281103    0.32487551315033
H           1.58970802644782    2.05476238269991   -0.61710678558082
H           1.46742924916280    1.45394548590530    1.00693444559218
H           1.23609185416989    3.12620046940214    0.67641418524214
H           0.09434373464663    1.94105137671298    0.15911652080240
