    26
        -50.46365341  Gyration_radius:  2.41770810073 Dipole_moment: 9.112
 S           0.80705267474675   -1.56714112818924   -0.91208160954701
O           0.00940251812928   -1.49251370334939    0.31140767738766
O           0.57643085081360   -2.71982251556176   -1.71232604081296
O           0.64941208359945   -0.29958977742372   -1.67750635293902
O           2.30767267555968   -1.55340974634661   -0.43527760653854
H           2.38064373782756   -0.78801782252999    0.16367890819448
H          -0.84759692051843   -0.78229307467028   -2.42973398136643
O          -1.71729655306183   -1.19666232754850   -2.55570661829103
H          -1.51886944857249   -2.13699706411445   -2.59251928252545
O          -1.67438792882228    1.62378231130260    1.03313096252860
H          -2.42809155038560    2.20863908726514    1.11635838754325
O           2.41796906173423    0.58463752793269    1.29045105882549
H           3.18942707665638    0.47177442822252    1.84772331955531
H           1.62042311255167    0.35583860654756    1.85700404414324
O           0.19516638166370   -0.00822835301146    2.47137847596214
H          -0.51561628139241    0.62124714006588    2.28916728566654
H           0.06207368894434   -0.72451157887053    1.81373493715974
O          -2.44645621242106   -0.59335442383526   -0.01990818123795
H          -2.03074916447040    0.77150240050571    0.61887035392487
H          -2.48559913662756   -0.68406969621707   -0.99164478150125
H          -1.63418386531935   -1.09084535323056    0.20910573552432
N           0.61722769724016    1.83864050780742   -0.33310696900190
H           1.41234322038399    1.71688552382673    0.30759868753203
H           0.73284990370805    2.65708534758526   -0.92004922595355
H           0.60546552922673    0.91732485259241   -0.95171250295034
H          -0.28471316120620    1.87009886124786    0.20196333871666
