    26
        -50.44310059  Gyration_radius:  2.64407312847 Dipole_moment: 10.167
 S           1.16544001376419   -0.72591397118374   -2.74748002432545
O           0.23034954115478   -1.47408191431243   -1.94376377759963
O           1.50950662006581   -1.23727443737367   -4.01906763389130
O           0.56755578511945    0.71298456239220   -2.94313868314966
O           2.43651478817901   -0.46773243890315   -1.91258350641003
H           2.19161077982921   -0.46954871413561   -0.92963018343054
H           0.06499856758768    0.99957506424592   -2.15008944438267
O           0.44217397664265    1.85384578407163    1.45196159923849
H           0.84874728886807    2.52715007002568    1.99809849600721
O          -0.43698441361326   -1.96664990346496    0.99294378064608
H          -0.19715499422669   -2.77275707486488    0.53156845383185
O          -0.81788379955282    1.75152313415594   -0.90746108481373
H          -0.33110194354691    1.83662019136790   -0.06014141084256
H          -1.00615885187806    2.63959413311967   -1.21609983339838
O           1.73085186422388   -0.41687776974618    0.53422792852087
H           1.40867961437994    0.45867370466732    0.80399300935322
H           0.97825513337787   -1.03273454335060    0.67936629198398
O          -2.04948739824587   -0.78381860530377   -0.75884930956557
H          -1.12024904876462   -1.54159571362872    0.41648119690000
H          -1.89711118188035    0.16928968665987   -0.75327303695839
H          -1.39456242948745   -1.13285025978275   -1.39199695918567
N          -0.92328329650817    0.16719844770618    2.95037305545795
H          -0.72817590997202   -0.70923190688258    2.47115200843537
H          -0.09678892188279    1.25620803020377    2.06155488626829
H          -1.92624495620881    0.30440602994520    2.92337646008243
H          -0.64949681742629    0.05399842437215    3.91847774122564
