    26
        -50.46146063  Gyration_radius:  2.4431453466 Dipole_moment: 9.676
 S          -0.76873430999206    0.33064045468214   -0.16160192054048
O           0.67930583419861   -0.22138642591208    0.04103862731380
O          -0.92006998845621    0.40451298181430   -1.63033385447961
O          -1.72932903422447   -0.56077563469002    0.43706524928628
O          -0.74268872941705    1.65896445727229    0.43019523852597
O           0.92774834139964    3.37551537722389   -0.56266096065171
H           0.30149524354305    2.78021647171025   -0.07182820661980
H           0.42246173940653    4.16344750765036   -0.77149691292877
O          -1.33449594754307   -2.50221308012757   -1.32657496423614
H          -1.27195138973054   -2.01244967612108   -2.14895889638622
H          -1.69327060369948   -1.86113438663814   -0.68472680705272
O           0.20292152733909    0.56169783451381    2.74922030098244
H          -0.26129814452163    1.02855129025464    2.03610134640102
H           1.10921096797955    0.46498021784035    2.44824487587352
O          -0.90020957938872   -1.96759860868917    2.61568463408482
H          -1.54149791722429   -1.60507230203067    1.98589221865475
H          -0.46805159227091   -1.17347506270458    2.97548069918533
O           0.61008622481528   -2.65220740739003    0.57181495282294
H          -0.03128381513614   -2.93306319834975   -0.10790572831551
H           0.69062798108760   -1.25402123936752    0.26725463122890
H           0.09965330010229   -2.59169347643329    1.42476463454175
N           1.36089589620399    1.32029432376190   -2.14017987865045
H           1.32398276644829    2.25354582742076   -1.63939368470103
H           1.93974413014076    0.68158926812271   -1.59617755903772
H           0.31663394311176    0.91417588688117   -2.04006859619174
H           1.67811315582553    1.39695859930136   -3.10084943911051
