    26
        -50.45420611  Gyration_radius:  2.39490052288 Dipole_moment: 8.238
 S           0.96495494356735    0.81589271217510   -1.63866954305509
O           1.56717093186376    1.82203696282405   -0.75146201538493
O           1.73819129931086    0.46413877957454   -2.78184072613244
O           0.82559261765812   -0.47259418508913   -0.70921648020461
O          -0.43359871192862    1.14422326703327   -1.92773517933478
H          -1.45984109122500    1.34181515400621   -0.77776979643296
H           1.67441006618395   -0.65785092536618   -0.26371671055262
O           0.11443729426611   -1.10220934036627    2.09732266504633
H          -0.30801942724160   -1.45797249136319    2.88055463116202
O          -2.06417217955436    1.46526422715697    0.01499473899898
H          -2.78049614225996    2.02265671139203   -0.29157637097024
O          -1.17054733417918   -1.39313249499561   -2.34645753293345
H          -0.96423580775083   -0.43920580753944   -2.32749523370963
H          -0.37274660366776   -1.81354344349651   -2.67124510460475
O           2.63908115231572   -1.31602176350747    1.03110309011333
H           1.82375868058148   -1.36329762247569    1.56122336933170
H           2.87192504068136   -2.21624549400671    0.79697858416775
O          -1.75968987252756   -1.32804895295304    0.32314661866164
H          -1.50105666945482   -1.52964998713356   -0.60028121118451
H          -0.53529988374678   -1.26363362340723    1.34276517000282
H          -2.08712323453642   -0.41766021434669    0.27955999036621
N           0.24377478850731    1.54682962856877    1.38597716147136
H           0.33636803014847    0.56636461051359    1.72181097849693
H          -0.73290599741143    1.67689216881084    1.05344363684953
H           0.48901130242651    2.21174981651000    2.11130785897873
H           0.88105681796898    1.69320229748572    0.48727742086104
