    26
        -50.47071364  Gyration_radius:  2.41584612062 Dipole_moment: 4.152
 S          -1.44847445534427    0.83545952055324   -1.14634643742182
O          -1.25064152145554    1.78886705286929   -0.06729851845513
O          -0.28061077773642    0.61815783297361   -1.96559165540806
O          -2.01217780577270   -0.42300908826086   -0.65326888203153
O          -2.54616795775568    1.47078668594265   -2.09420691734860
H          -3.19294902766946    1.78754631792794   -1.47307176974308
H          -1.05127260643325   -1.61420450666789   -1.26082862807406
O          -0.30054047118778   -2.10330924201996   -1.67094576316540
H          -0.06068471565470   -1.53924724182590   -2.41483086066674
O           0.65118917575445   -0.62997009039657    2.36033870275546
H           0.72540872047807   -0.94636292108309    3.26127867703082
O           1.19516635310933    1.88755561467250    1.07376624324975
H           1.10995125732301    1.14677071138357    1.68860237613962
H           0.31526003232421    1.99919736035132    0.66533806472199
O           2.22782430725082    0.76035665490647   -1.08149102813199
H           1.39945042814513    0.82173016810582   -1.59901171460776
H           2.05990966373329    1.34575758054779   -0.30515636690490
O          -1.80646527105356    0.07727503700135    1.90417051994920
H          -2.03306852065663   -0.35966355792114    1.05864937787865
H          -0.31628479351089   -0.40609938629341    2.22372569624386
H          -1.68552267525642    0.99603989328978    1.61900089403350
N           1.67338828518706   -1.52795013242004   -0.00956161764820
H           0.88094688266713   -1.87240048605202   -0.63143149903031
H           2.02309273826930   -0.59893960636392   -0.46373466651566
H           1.30662141132287   -1.29943745022529    0.93435732589156
H           2.41665132391605   -2.21490672099462    0.04754845725549
