    26
        -50.47071374  Gyration_radius:  2.41583749279 Dipole_moment: 4.141
 S           1.48341926842689   -0.19010129802504    1.36888996383528
O           0.50584751944367   -1.19286400639800    1.75812982115543
O           2.04167164649094   -0.38768840153404    0.05292870584140
O           0.95858806764746    1.16609123336681    1.54164846019013
O           2.68487561954987   -0.33412190929814    2.38987124789269
H           2.23382617394238   -0.42690498471660    3.22194465136034
H           1.23476652086569    1.94025097155366    0.11484789487667
O          -2.49685080698529    0.24559691030808   -0.30936809610185
H          -3.42718830990089    0.47273123003970   -0.29547263185919
O           1.43913722511663    2.13319781371465   -0.82963560220588
H           2.18753530664167    1.55259129690952   -1.00801041819738
O          -1.04659595725760   -2.23788722695816   -0.18911735642287
H          -1.71745516624932   -1.54417635515380   -0.24214854586852
H          -0.47267507038845   -1.99843814937239    0.56372600892796
O           0.73408469711308   -1.48629429563881   -1.99095621060620
H           1.39885281790851   -1.21457849703111   -1.32608637521083
H           0.07600009328142   -1.99915500355124   -1.46418704850283
O          -1.51621591158838    0.51921409636743    2.08048816692654
H          -2.15911986399807    0.40224943092166    0.62134563481430
H          -1.15103753895370   -0.36589244074341    2.23354693737613
H          -0.70143974395404    1.04498276495989    1.95111496972169
N          -0.47800478906122    0.79807592825755   -2.06648687551116
H          -0.75137801120663    1.15765934472818   -2.97400416920458
H          -1.30469115340032    0.68282134123981   -1.44928497206367
H           0.00967995290850   -0.17459262299028   -2.15333301290645
H           0.23436742361477    1.43723283904935   -1.60039112827026
