    26
        -50.43849516  Gyration_radius:  2.68751875659 Dipole_moment: 7.921
 S          -0.02202503786266    0.07666772654713   -3.04904577379139
O          -0.88635422569877    1.20033422421348   -2.82138925656938
O           0.66514835730481   -0.01410702137135   -4.28147377456002
O           1.00687243613363    0.03897210064492   -1.85913876136970
O          -0.80746778002256   -1.24814823520188   -2.82958109468550
H          -1.12736673219316   -1.30607813297524   -1.89046508072648
H           0.65618165250284    0.69906117963947   -1.19004225817352
O          -1.40252697282017   -1.60803528550038   -0.30958592068663
H          -1.77691441027432   -2.48766006648503   -0.23762122360512
O          -0.11285633787455    1.83094921942243   -0.38350326378704
H          -0.54964338045913    2.02422286643352   -1.23178726703638
O          -0.18578791475882    0.30230565708692    3.24607491340725
H          -0.33151041805053    0.90850123469426    3.97383508362735
H           0.58529428594706    0.63425442096710    2.75411467711990
O           1.76009302784983    1.22338298950034    1.52784908154597
H           2.52203634617352    1.80410925497706    1.54243690257959
H           1.17122265292326    1.55737468826742    0.82881250532835
O          -1.90136217152858    0.68624073536785    1.14331877751047
H          -0.84359134590275    1.47063513577953    0.19781637737143
H          -1.97300859595149   -0.14548014678688    0.65132846571074
H          -1.40901824920749    0.47479783987430    1.95921684722068
N           1.08724784773317   -1.65363616636510    0.51300517032493
H           1.55320489096350   -1.43134113930986   -0.36069553133680
H           1.27547222572539   -0.88832998906135    1.15182310960500
H          -0.45604354202649   -1.65671720335766    0.05714435117329
H           1.50270341137490   -2.49227586700318    0.89755293380129
