    26
        -50.46212808  Gyration_radius:  2.57847645592 Dipole_moment: 3.931
 S          -2.01136244079418   -0.99545280657778   -0.73035390588488
O          -2.59681878217129   -1.26855293765695    0.56298566205872
O          -1.66186732810480    0.40675003792565   -0.93229539241210
O          -0.88424677587400   -1.85876477497677   -1.03982288222252
O          -3.15289417411605   -1.31587040083282   -1.78589874989808
H          -3.72804196194042   -1.84674761780220   -1.24625093358241
H           0.41612670312997   -2.02314609873062   -0.18448290683910
O           1.25036152444504   -2.07283008052302    0.36319419880054
H           1.64984008297554   -2.91653371837161    0.14752053072919
O          -0.33164006469707    1.42043226165420    1.13435247829761
H          -0.98208739465687    1.23584563875078    0.42595500409636
O           0.36666462816545    0.71990750699529   -2.56138616483418
H          -0.44532280375921    0.49614172303209   -2.04551784586336
H           0.17320776289108    1.54891629156899   -3.00271037338200
O           2.19084976354987    2.77587551333182    1.26515321956553
H           2.42091003914517    3.45026854702768    1.90484529847474
H           1.24900155560137    2.59093595839842    1.38923715372720
O          -0.57668217661402   -0.93729269167401    2.26467600083189
H           0.11514094860408   -1.47558746530931    1.85921225794336
H          -0.44168650281646    0.66158745728349    1.76097003744512
H          -1.39744507293760   -1.13876464115336    1.76979903772261
N           1.71294686383243    0.50323716024230   -0.27363522183412
H           1.39398212757449    0.60311111103221   -1.26744951752226
H           2.55082969368460    1.04233007377244   -0.06797695678265
H           0.92195815313698    0.89907003980441    0.32630366830273
H           1.79827563175081   -0.50486607720819   -0.03642368695785
