    26
        -50.45940973  Gyration_radius:  2.50875449098 Dipole_moment: 4.712
 S           1.41224790773459   -1.49355314471778    0.78021591164399
O           1.20442112603170   -1.34566921118148   -0.65962600260081
O           2.40686337945175   -2.43304733443227    1.17817971563769
O           1.95172318889088   -0.04977706120520    1.23534421723671
O           0.11809745097065   -1.63712486360821    1.45116274256230
H          -1.50221143766429   -1.72380268411251    1.00823920252787
H           2.63495656140572   -0.29110400317245    1.84995514054861
O          -0.21689724972700    2.10005268806340    0.55499013900022
H          -0.49081307538282    2.99720832003018    0.74849008035094
O          -2.40968958983030   -1.65560407294579    0.63619791031226
H          -2.73186975954698   -2.55457039670375    0.56347777445469
O           1.69995024271799    1.20985254032416   -1.50454271403665
H           1.76437946670120    0.27767381002263   -1.23372936370682
H           1.36761122323002    1.67404273949385   -0.72639051808151
O          -0.24490234476693    0.98546548278829   -3.34382736519379
H           0.10214636436964    0.48993073490127   -4.08647622815767
H           0.53433383253338    1.20594086368346   -2.77994038162066
O          -0.62861271179651    0.56111167846812    2.67383253878089
H          -1.55818031395226    0.37460632686176    2.82455533082167
H          -0.25330977036782   -0.27025830228164    2.30539440361707
H          -0.24142981176870    1.60284682288338    1.40864968384904
N          -1.01755195368745   -0.00552115260019   -0.98520495933361
H          -1.06242472852979    0.26231400913627   -1.98823107668131
H          -1.82603219973737   -0.53172951645789   -0.61877319147581
H          -0.15162595740932   -0.60822446800575   -0.85982779720491
H          -0.86117982987323    0.85894022475670   -0.43211518325143
