    26
        -50.45779534  Gyration_radius:  2.49981314549 Dipole_moment: 8.728
 S          -1.89145011955007   -1.04677391882814   -0.75606489624374
O          -0.89875697997095   -2.09554371102935   -1.06383287995016
O          -3.05205936127337   -1.08626631918731   -1.57213423673436
O          -2.32053386147190   -1.28855288146484    0.74782340123816
O          -1.19828745257703    0.25407862830675   -0.73276774068689
H          -0.38200301112134    1.56536246649639   -0.35987419514273
H          -1.56753271280166   -1.00291681048229    1.29191653568008
O           0.19308196219013    2.34857120396962   -0.16945811263221
H          -0.21439428916670    3.08106834087505   -0.63482459779897
O          -0.23231201066842   -0.59769773274860    2.40407829561832
H          -0.59636714852164   -0.87419073213316    3.24673530872514
O           0.17177973449890   -0.18921920865584   -2.95465573652463
H          -0.45740364491657    0.03514546854252   -2.23990400391269
H           0.00655804091225   -1.11709943005340   -3.13629413938158
O           2.07448451431695    0.58988445153908   -1.23777735988310
H           1.55744143978044    0.35002794579136   -2.03918721385471
H           1.61165644092424    1.36186180666076   -0.87294012265028
O           0.19877452329949    2.00375253647627    2.48470686679727
H          -0.13128164795166    0.38788240403703    2.45369030117466
H           1.05875111698190    2.29854962039699    2.78917323824380
H           0.15112376576380    2.23215768504973    1.53024748553092
N           1.21043349590949   -1.44844375498930    0.18274132745466
H           1.87832838095799   -2.20787371859621    0.25652701349123
H           0.32292085705875   -1.77316074134202   -0.38749321553499
H           0.87214555014557   -1.16456499357455    1.10949943245798
H           1.63490241724871   -0.61603860505121   -0.33993077548401
