    26
        -50.45941048  Gyration_radius:  2.50849349837 Dipole_moment: 4.742
 S          -0.84427058384556   -0.13077086384504   -2.02390089874919
O          -1.69077317100932   -0.35645502390659   -0.85359557839275
O          -1.49886309527130   -0.15783444785332   -3.28913499823265
O          -0.31609906643789    1.37361264389933   -1.82257676129804
O           0.35727064382523   -0.96392176610959   -1.93006367953945
H           0.98314065454793   -2.12105512156905   -0.88190107719608
H          -0.34585072882629    1.70483652090515   -2.71259158814061
O           1.28726408858562   -2.69769013026212   -0.14597729185229
H           1.09527297022665   -3.59532073862571   -0.41923684616575
O           1.29801053328902    1.53585016925614    0.84494146482845
H           1.93231110887791    2.06561976559162    1.32902783779346
O          -1.86413228641760    0.12251726980428    2.95508580962643
H          -1.85220619247998    0.86250168529899    2.30242188312127
H          -2.78208859239676   -0.13837106380439    3.03725877854671
O          -1.64826698932824    1.78256124978032    0.85437320541995
H          -0.72695114614695    2.03873191070377    0.72485724883540
H          -1.83807293336702    1.15297922842569    0.13743377386295
O           2.48193482355917    0.41305814115495   -1.24542024623027
H           1.68913130711282   -0.03940236529923   -1.61278984443869
H           1.73512328214441    1.26587512574478    0.00094678827491
H           3.08539470759970   -0.29208221418800   -1.00024120778211
N          -0.09350118842699   -0.78811209838722    1.17203448762449
H          -0.74697584191426   -0.68144039075947    0.34135489289728
H           0.45868834978393   -1.64875649803910    1.03317995783926
H           0.52343157268722    0.04701496025223    1.17467216081486
H          -0.67892221637198   -0.75394592817815    2.02984172852000
