    26
        -50.45513991  Gyration_radius:  2.75103976882 Dipole_moment: 5.658
 S           2.62196841768262    1.03059506242486    0.69083051531161
O           1.91137352567675    0.85918258857705    1.96438177397115
O           2.53918598524058   -0.13561814532666   -0.15093657863588
O           2.20529793771243    2.26056482209030    0.03097104335675
O           4.14983605926348    1.22499842670809    1.07263462588114
H           4.13180854384695    2.02280521955094    1.59266376612588
H           0.70887361865720    2.24203457613499   -0.46269461993778
O           0.44329306669486   -1.62224023276163   -0.68476583934737
H           1.33850376619317   -1.23270278404223   -0.58037623960443
O          -0.27118812300292    2.21785090391961   -0.65582972303880
H          -0.54465014418417    3.13424858715719   -0.71551630936976
O          -2.90449423573320   -0.62300494142415   -0.08380656414550
H          -3.83207501589794   -0.73101863113986   -0.29559168331121
H          -2.54664881531219   -1.52428967004251    0.06305370867179
O          -1.69275730500437   -3.02890245632416    0.19423324605060
H          -1.89106126004125   -3.77769225290950   -0.36996886350841
H          -0.80802642393506   -2.71687083663513   -0.07268097154654
O          -1.09889176633064   -0.00122277285183   -2.12947495827204
H           0.02191991077241   -1.13655847314603   -1.43192752458143
H          -1.85084600483598   -0.13831250001702   -1.52815416485934
H          -0.73179256175607    0.86010734756609   -1.88251939552377
N          -0.40693484715385    0.15932405629987    1.11023329406988
H          -0.17004369890179   -0.65608730530424    0.47786420761449
H           0.50261803849213    0.41948669839156    1.61780636692178
H          -0.64623975001112    0.96578203947270    0.50274381031294
H          -1.17902889812503   -0.07245932634483    1.72682709737771
