    26
        -50.45514011  Gyration_radius:  2.75115938425 Dipole_moment: 5.661
 S          -2.38745705807487    0.65635343798550   -1.51169702587884
O          -2.35650971733387   -0.80952104538748   -1.43030886236726
O          -2.18670754778744    1.28637776593845   -0.23174607372288
O          -1.48201955603017    1.13319168554903   -2.54828367049743
O          -3.85255525471161    1.03004925342004   -1.99317450412661
H          -3.90008911583168    0.61280641000829   -2.84807678009360
H           0.04035596148416    0.88367402410317   -2.22697818704707
O          -0.42225929606570    0.70180140290755    1.62123481351673
H          -1.17219658237441    1.04497364159265    1.08854968541918
O           0.97799804529832    0.60407354751541   -2.02442139809084
H           1.43156837710681    0.59229374856989   -2.86838669521862
O           0.78105111768299   -1.14563397061703    3.18771908036958
H           1.05053880701955   -0.78311117373417    4.03291927427716
H           0.18461880091723   -0.48495751822580    2.78876979340671
O           2.45278321451061   -1.29742847288346    1.06286891712940
H           3.33569367527098   -1.54272745153878    1.34077050435287
H           1.89161962046152   -1.32242335583166    1.86693666716767
O           1.89143710334606    1.38425507877323    0.49253072235561
H           1.63836542927736    1.39076331819375   -0.44208834855006
H           0.37277293712146    1.20341577787718    1.32442637843287
H           2.25967678510509    0.49790062049741    0.64929445995378
N          -0.09702708281684   -1.16036725429804   -0.26173750980622
H           0.54345809728187   -0.67767401321506   -0.92015392731920
H          -0.19543587272104   -0.54556644700678    0.59457142270749
H          -1.06195034320051   -1.17658352653931   -0.73218590887922
H           0.26226947507293   -2.07593549367948   -0.01135282750759
