    26
        -50.43284151  Gyration_radius:  2.78348888413 Dipole_moment: 9.133
 S          -3.19905136412359   -0.49632308382632    0.36528725317490
O          -2.44620841265332   -0.62841782669523    1.58406813166340
O          -4.60593322418370   -0.39010174912909    0.45655493075793
O          -2.60184672721738    0.72978853754784   -0.42172426663946
O          -2.85132023361309   -1.67014509829366   -0.58943870304858
H          -1.87905132355152   -1.62485385015209   -0.78595857112840
H          -1.88924143568305    1.11544253826090    0.13963303043346
O          -0.35666662385638   -1.40801795677830   -1.31242198855646
H          -0.36481379993748   -1.76626495450220   -2.20202276029993
O           1.68449847900625    0.31625431614676    1.88493858993752
H           1.74373840054319    0.10988303315342    2.81870809589045
O          -0.78106583036930    1.39725742732188    1.35496961650478
H           0.13874228503653    1.10118461414587    1.50122721351459
H          -1.32674280707694    0.71654040228336    1.79044430114374
O           3.15101132150016    0.84349044159270   -0.43921821110723
H           2.73700591540461    0.85870155249866    0.43947819612173
H           4.01258925182544    1.25149656363539   -0.34507466574735
O           1.86243485474028   -1.75192913229183    0.25988634771302
H           1.66751099584345   -0.55120427610112    1.40410664135511
H           1.01614958065405   -1.80291959416976   -0.21918102061308
H           2.46957148843942   -1.27945312902778   -0.32112314352900
N           0.39532550094028    1.08093910087315   -1.50139050935532
H           0.13779570015664    1.57860121713545   -2.34334934986802
H           0.00639065271696    1.58395385201462   -0.71111599039818
H          -0.12848835860891   -0.41333703352271   -1.39888402638264
H           1.40766571404299    1.09943407788623   -1.40839917152789
