    26
        -50.46146063  Gyration_radius:  2.44319873922 Dipole_moment: 9.674
 S           0.21226868627907    0.74507827572363   -0.35543466157553
O          -0.33984511578184    1.75799294998381    0.53033392884654
O           1.68847557930453    0.81593580151515   -0.39138589421784
O          -0.08274056760936   -0.61157831748519    0.36244482524525
O          -0.36174061198636    0.74373030529983   -1.67681207225925
O          -2.73756450614326    0.44533207982238    0.46903200715111
H          -1.98706708019185    1.06021985664861    0.44329894459649
H          -2.48821565842601   -0.24160191468033    1.09130450496980
O           1.31928948719871   -1.07447926646115   -2.62784494683958
H           0.71702413033810   -0.32019349173706   -2.48634980387037
H           2.15173389932655   -0.79565972221107   -2.24134982234575
O           0.61403198183613    1.88833061242038    2.93787263466950
H           0.13931161131749    1.88257101542387    2.06491413284014
H           0.87248192153515    2.80032072224809    3.08358603018213
O          -2.62290271373854   -0.73194071899160   -2.02744438077656
H          -1.94935587175211   -0.07382550100770   -2.25667987063907
H          -2.98066169971583   -0.40044622858839   -1.18545134211436
O          -0.68372820113054   -2.35846550959518   -1.30572168382909
H          -0.34096513698714   -1.38038085380117   -0.31562900929780
H          -1.50609831364657   -1.92736004891061   -1.66567896184100
H           0.02021539710266   -2.18615649716288   -1.95916935851125
N           2.10427993502468   -0.02871033561583    1.93559096504155
H           2.04771153544836    0.36054185191984    0.88175703356012
H           1.51103281437471   -0.85756655552121    1.93652936391888
H           3.04847972606506   -0.23601133753325    2.24361100031911
H           1.63454876195726    0.72432281829556    2.51467642677361
