    26
        -50.46146061  Gyration_radius:  2.4428924423 Dipole_moment: 9.680
 S           0.78569638081066    0.21314115365819    0.25132065929431
O          -0.69258774916966   -0.14336238922626   -0.10926392188960
O           1.25663252282183   -0.91818266541127    1.03466453735562
O           1.54635151379071    0.45475559502388   -0.94817435183525
O           0.66608307533466    1.42714131395583    1.08656910037109
O           0.50009734550122   -2.58399829674646   -0.99844007011626
H          -0.43558965918631   -2.57742008066866   -0.78453700282043
H           0.93353379683419   -2.07961564080821   -0.29160125651299
O          -0.00958238930779   -1.45797177861193    3.23156755760806
H           0.65052398576224   -1.50549273803358    3.92559999383813
H           0.50176988790622   -1.37611498002528    2.38335246655422
O           0.77691196072787   -0.90640029230667   -3.17666141635421
H           0.66912880617489   -1.72021883223361   -2.65433871252785
H           1.36292303719694   -0.36548534634987   -2.62581901531071
O           0.28378117929090    2.71097886682161   -1.54045338694509
H           0.92741849518581    1.98947640579478   -1.41068275204286
H           0.20616121499610    3.12408207758396   -0.67818927544741
O          -1.22541510414353    0.62347132392085   -2.41635987153412
H          -0.56755705147453    0.05638642872176   -2.90341381807281
H          -0.95732935077874    0.16927666252084   -1.08389254409762
H          -0.83178700344203    1.51536204839808   -2.37001632755298
N          -1.30922428687161    0.68517598843739    2.44672172969355
H          -0.42700639978113    1.12749229040112    1.90733809816467
H          -1.76886340943331    1.33410450017415    3.07679360304040
H          -1.93199313102338    0.36594732298804    1.70567081453967
H          -0.91007765772319   -0.16252892798513    2.94224517259769
