    26
        -50.46631273  Gyration_radius:  2.39728549981 Dipole_moment: 8.090
 S          -1.37478320062722   -0.38888771835086   -1.29024268283894
O          -0.05724561795007    0.16937887558661   -1.68165577440882
O          -1.72279889350913   -1.53583937453826   -2.07171575508902
O          -1.32934669707424   -0.70871860529782    0.15317110068998
O          -2.41148933799523    0.73400247960894   -1.47812205880620
H          -2.11179973419791    1.48292619506468   -0.88186957878416
H          -0.83733052783188   -2.33788855194584    0.12110462163709
O          -0.33637787456943   -3.08724745678405   -0.26655991325402
H          -0.74964103161012   -3.16818522547634   -1.13671459224508
O           1.94571684695097    0.36590646351042    1.52405810696253
H           2.49635084709643    0.54450197195220    2.28737943187805
O          -1.46944232254371    2.52830834777917    0.14156777121641
H          -0.55051042076570    2.68516407516467   -0.16599024282523
H          -1.36920503866774    2.10503081837178    1.00549190664315
O           1.12348522925216    2.28783938038406   -0.55766721706181
H           0.75683954113133    1.59625597895146   -1.14043991107399
H           1.57053869567472    1.81324946380633    0.15330288713545
O          -0.62167044495112    0.71189272810604    2.14135773351653
H           1.01167810011855    0.51401865815367    1.80738636121924
H          -1.05142826259484    0.33387087886654    2.90995179337785
H          -0.92876152660899    0.16374723943983    1.36147675180027
N           1.64309679631140   -1.37913586559409   -0.58142165753313
H           0.99531303201204   -0.70374712405624   -1.13861894143623
H           1.89324863674492   -0.88310626910599    0.29136213219076
H           1.01656988827629   -2.21539084769581   -0.39189890760152
H           2.46899331786237   -1.62794654584718   -1.11469337536572
