    26
        -50.46631264  Gyration_radius:  2.39756736652 Dipole_moment: 8.092
 S          -0.58770809052113   -0.00965723351376   -1.83325928033420
O           0.72531765518023    0.54663416673695   -1.42419941716923
O          -0.46255480838405   -0.92932985707737   -2.92225367924588
O          -1.20585265347441   -0.64833139176390   -0.65101856303856
O          -1.47768544303791    1.18377204017837   -2.22676574967357
H          -1.53529089250035    1.76078889457429   -1.40832720395729
H          -0.66400308923028   -2.25452592341645   -0.81430618322021
O           0.00251427352477   -2.92323146433701   -1.08128915153829
H           0.04981685634745   -2.77976751104859   -2.03617841709780
O           0.98472964626413   -0.10091122157135    2.29651279008664
H           1.10021216704541   -0.14089763180885    3.24661349362808
O          -1.50674676650241    2.51125227737657    0.00207895100165
H          -1.79571888144550    1.89834306134608    0.69234840324663
H          -0.56160207727354    2.68312130296147    0.20328957215313
O           1.12169898405431    2.28917334626317    0.56402713928702
H           1.21224460937791    1.64402006909766    1.27529734930590
H           1.10945583417677    1.76676574803988   -0.26013732340853
O          -1.58745025063170    0.24743407186283    1.69902462580635
H          -2.30757794192706   -0.26457148334004    2.06979344201710
H          -1.46366262671608   -0.09418764271066    0.76576212898860
H           0.02058565198067    0.03521904884130    2.13398978411371
N           1.79919180094066   -1.30457913783235   -0.03870294099806
H           2.79104100688298   -1.47359093667579   -0.16533824386110
H           1.58437113183170   -1.03311845195823    0.93637722706950
H           1.44978380879324   -0.48518566034257   -0.66512577091200
H           1.20489010278930   -2.12463847198913   -0.35821299247502
