    26
        -50.45221949  Gyration_radius:  2.52595932713 Dipole_moment: 6.840
 S          -1.14120614377134    0.64625137319318   -1.93795958592691
O           0.24445428061185    0.95414180859585   -1.50790197829933
O          -1.39542798729888    0.90101516936049   -3.31213675930556
O          -1.26524166791911   -0.92913447414206   -1.67403164612902
O          -2.08506745029192    1.24445673725782   -0.99721027270853
H          -2.10124174161385    0.76315200351357    0.43352772572499
H          -0.36746899836302   -1.23698035592827   -1.48495658249548
O          -2.00465009726755    0.53019985457706    1.41822417888767
H          -2.83959321212873    0.76937565242664    1.82307417341067
O           0.81274114538637   -2.26593490104763   -0.45368433018429
H           0.86137267772837   -3.16379397842359   -0.78539509479879
O           2.60268681543235    0.75577331621383    1.61728419972478
H           2.64314139344792   -0.01950860031515    2.17929465420523
H           2.76827672359100    0.43278234746135    0.68886745234152
O           2.60873996510761   -0.18993309586219   -0.82874789015996
H           2.18170118430278   -1.05015410324841   -0.70203257551275
H           1.92831338049035    0.34511291062391   -1.27230369236545
O          -1.45942880298415   -2.09901137026758    0.91463489025409
H          -1.95240488726873   -2.10861401009026    0.08656837888374
H           0.07634041248311   -2.25297120155354    0.20466115401039
H          -1.60498861433177   -1.20367623679831    1.27313836278437
N           0.29739065610377    1.85503323004609    0.88814234375718
H           0.26390360067468    1.53410022869902   -0.15214797684948
H           1.19356607757048    1.48163123023124    1.30198772310816
H           0.26851205908796    2.86757035750452    0.93280798815902
H          -0.53442077878212    1.43911610797636    1.34629515948254
