    26
        -50.46631275  Gyration_radius:  2.39734406176 Dipole_moment: 8.092
 S          -1.42766362492351   -0.66357684360049   -1.10892182499062
O          -0.36428060983163    0.22604414602140   -1.63690399375045
O          -1.60828504110092   -1.82410968145967   -1.92606053993260
O          -1.07570072226711   -1.02723969416511    0.28094348741417
O          -2.72143920986935    0.16930412087744   -1.05048009868930
H          -2.52085322446207    0.94061264991737   -0.44127746278615
H          -0.21564955954212   -2.47664465474332    0.04137594774926
O           0.38355519497619   -3.05650725457941   -0.47571262820673
H          -0.13105200655212   -3.19911347993105   -1.28149075881021
O           2.01695067660017    0.77553984856782    1.25547446086007
H           2.62222301556489    1.05169600844213    1.94474269024758
O          -1.99605411366126    2.06568010716722    0.56422530505351
H          -1.65906575856305    1.64190398630175    1.36572942358249
H          -1.20401121246598    2.46332669406151    0.14206084078968
O           0.43082777173846    2.52022325146805   -0.51872025841596
H           1.08764640598361    2.14205025227018    0.07803818869079
H           0.15456641413101    1.78598903253162   -1.09923151333745
O          -0.42495830365592    0.43173079868517    2.26066444229595
H          -0.71046062670368   -0.13937715162337    1.48908011991243
H           1.13237289624327    0.66949834778744    1.68099579133664
H          -0.62207916348980   -0.07795458680283    3.04788075065077
N           1.81372044865832   -0.89077975134199   -0.92396732924505
H           0.94091322138877   -0.37642452051173   -1.32395718845575
H           2.57916782038169   -0.89778859712741   -1.58910601552264
H           2.07206756332437   -0.38815910347373   -0.05731470088739
H           1.44754174795370   -1.86592396505309   -0.71806712551753
