    26
        -50.44352704  Gyration_radius:  2.64378972316 Dipole_moment: 9.513
 S           0.31881465024673    1.46127547939236   -2.59740981872339
O           1.13702235795046    1.43160726925374   -1.39566525553512
O           0.86348011866274    2.14538119091824   -3.70814086028292
O          -0.01987636402109    0.01707081497903   -2.99215441300638
O          -1.06741323350022    2.04265465075087   -2.18569541500837
H          -0.98236480091601    2.45564630062553   -1.28024854980018
H          -0.49126570047925   -0.41469230227387   -2.20282826699835
O           0.97473616205417   -2.46455899653516    0.05150610965836
H           1.50227439187108   -2.90317413537377   -0.61731790930503
O          -1.26385375406915    0.44997834196122    1.40165581964220
H          -2.19029090364069    0.53300219400674    1.63364977641732
O          -1.08578121828575   -1.01242053653086   -0.92384835155686
H          -0.42364922095334   -1.66588871060878   -0.61443425253991
H          -1.17468265147136   -0.36982012198094   -0.19559856340818
O          -0.44908039416371    2.81120192082943    0.20506792773656
H           0.42532006050558    2.54653579282357   -0.12468130829862
H          -0.75938902910424    2.06962146801318    0.75056082361094
O           1.93385041825248   -0.07294223136750    0.64279069985940
H           1.78716454138231    0.45252388489889   -0.16888448794556
H           1.38981390320514    0.33865719249627    1.31850670907766
H           1.44615918832730   -1.62263973307674    0.27266020521373
N          -0.34595681158759   -1.73207134507679    2.62036709506313
H          -0.91202803830086   -0.33555050842004    1.91585159285136
H           0.39883413615761   -1.59258075873773    3.29220113114148
H          -1.05378867813703   -2.30820104019697    3.05896631936455
H           0.04195088000499   -2.26061606076300    1.84312324277132
