    26
        -50.46474625  Gyration_radius:  2.50736918803 Dipole_moment: 5.231
 S          -1.89860745229512    0.41655723878229    0.34583575539458
O          -0.97611570572772    1.40460922215642   -0.24416095670682
O          -2.69415622822808   -0.23453073974691   -0.65165534967789
O          -1.12521426539547   -0.56454556296320    1.13285051188404
O          -2.80131778447520    1.18103163889821    1.35482711512970
H          -2.15866946264221    1.72594741455832    1.86956052273076
H          -0.81020610577375   -1.65096807933438   -0.00504523345117
O          -0.58834695590590   -2.19185129176043   -0.80603735802065
H          -1.43088162543403   -2.57084130776733   -1.06795646754163
O           2.60568371927877    0.07867013802974   -2.05915132814247
H           3.23194375750579   -0.47008088321427   -2.53342005918182
O           0.99469322902642    0.17759128209440    2.40248955102074
H           1.05434906716437   -0.34402967849910    3.20482383517231
H           0.15881696858529   -0.10693133746126    1.94924246013439
O          -0.64902223993992    2.45270832559495    2.18679564635252
H          -0.54005537236921    2.43988768886243    1.22219481239137
H           0.03808731151663    1.85109974132017    2.51393712885437
O           2.11212871188918   -1.14307966492106    0.23651596263924
H           1.86079796810215   -0.58274173502179    0.99410617102468
H           1.35016812889714   -1.70167489957474    0.05165965480588
H           2.54833178062749   -0.29639539210835   -1.14564708411037
N          -0.05235448888151    0.02674692813183   -2.22473111603250
H           0.99053702232037    0.12876431832745   -2.31671601956297
H          -0.53965600981569    0.18604876282374   -3.09956928641246
H          -0.27249330321989   -0.92317341365893   -1.82994430292024
H          -0.40844067482774    0.71118130645700   -1.48080456577251
