    26
        -50.45541861  Gyration_radius:  2.39395636345 Dipole_moment: 8.254
 S          -1.64715455614586    0.44044112652001    1.15578510945672
O          -0.81307182844257   -0.76116752240202    0.99919750344092
O          -2.65196933830495    0.33668114450866    2.15419328056320
O          -0.63199638078799    1.57479735246569    1.59989880747852
O          -2.12889613315194    0.84992041181983   -0.17646094407708
H          -1.63955751538112   -0.24251811244933   -1.17782896893575
H           0.04524060437354    1.56463889740028    0.90081308092712
O           1.20512396977637    1.63491206593118   -0.41370738590199
H           1.76346368056755    2.38595631430805   -0.20831240064463
O          -1.27711638609241   -0.92885922381722   -1.81262033228211
H          -1.72859625281058   -1.73979062908959   -1.57136538946488
O           1.57822069096631   -0.31354104345618    2.04505617250152
H           1.54617431404767    0.34751395251941    2.73703741286587
H           0.65323051651730   -0.40210029116180    1.72780292664956
O           0.93658738399075   -2.79359446323691    0.98363928859824
H           1.49161886737241   -2.39931980503098    1.66920181466735
H           0.06323386410646   -2.38651220437259    1.12230840688611
O          -0.83064789997771    2.34488670104541   -1.85951837386089
H          -1.01631277280622    1.89102958552596   -2.68427262298535
H          -1.44071012482796    1.93177947909039   -1.19833700481899
H           0.50702717835851    1.95733506470128   -1.05004031107736
N           1.23093657256375   -1.06047294908722   -1.00416859294191
H           0.22827682324449   -1.02386855161755   -1.37784016031441
H           1.89656982497915   -1.28120380177169   -1.73692990001000
H           1.42777127876837   -0.13409797672298   -0.59226362232739
H           1.23255362909684   -1.79284553161549   -0.23126776439130
