    26
        -50.44868284  Gyration_radius:  2.48380739163 Dipole_moment: 9.445
 S          -1.03050757703513   -0.40098813101728   -2.01975195218012
O          -0.67759370057832    0.67120281635839   -1.08587943641888
O          -1.43659744286984    0.03347595214479   -3.31056698047438
O           0.38413416091297   -1.21189110416515   -2.18515445588813
O          -1.88018294403492   -1.38775328634960   -1.36458508541317
H          -1.83875401024392   -1.30714998221890    0.12731737290854
H           1.00584856736082   -0.48994954805107   -2.43355139053401
O          -1.68514161438148   -1.38499912437738    1.13367153531332
H          -2.22205648156766   -2.12792077979440    1.41495218587170
O           2.24391239869591    0.77058134020457    0.80231866693125
H           2.80331394711519    0.97839579768836    1.55148022079418
O          -1.60667491904694    0.95186892880922    2.57096390299038
H          -2.44845725750214    1.40196095706410    2.48140322496399
H          -1.68171317134858    0.12590033318564    2.05869576051594
O           1.74385145671320    1.01916053735954   -2.10114485479343
H           2.25259962093363    1.04817562707569   -1.28141956168085
H           0.83827272455685    1.27279212396488   -1.84630866454956
O           0.13203171871580    2.21367898537351    0.91503432503658
H           1.45764086333132    1.41226604176120    0.85361415773876
H          -0.28026019744025    1.83366855451252    0.11716703784154
H          -0.41889370260537    1.87781132408938    1.64999433908892
N           0.88139977064233   -1.47515054886332    0.40819030659619
H          -0.06253608636191   -1.43917390078322    0.86979793780486
H           1.44568579363148   -0.60706680339036    0.63760254040252
H           1.38540321434725   -2.31726519955035    0.66871102899589
H           0.69527485803630   -1.46163093101420   -0.63255215185453
