    26
        -50.45584553  Gyration_radius:  2.5055653778 Dipole_moment: 7.194
 S           1.62405422051398    0.94592792471905    0.43391272947005
O           0.39474466571119    1.76103201471690    0.32847924622414
O           2.69584773940423    1.59977538935625    1.09385198361472
O           1.24936734615191   -0.36901562753940    0.97968074900832
O           2.05303148836490    0.65975158973351   -1.06140708816977
H           1.48120059731753   -0.05260760345449   -1.39637091623211
H           0.18323611277751    0.09846929700112    2.18628593974667
O           0.53620181958158   -1.45297554434940   -1.96069930577963
H           0.88901409654848   -1.67267093124197   -2.82433234532957
O          -0.54766804218857    0.49651413571715    2.70526876032046
H          -0.51440670867635    1.43102288479968    2.48364020195170
O          -2.55073229097731   -0.79233094506422    1.56813765702953
H          -1.89830927824526   -0.27991138814210    2.11279402839430
H          -2.52541454230567   -1.68895270229427    1.90450685191413
O          -1.11544416775972    2.57998836491386   -1.81857721814987
H          -1.01307648731318    3.45663584054253   -2.18980604222033
H          -0.47944358912907    2.51865247474553   -1.08516371916014
O           1.83900561797991   -2.67529003631715   -0.05142846484195
H           1.76685592299664   -1.81488375818768    0.43057959388609
H           1.54604511034971   -3.34769749074368    0.56547456429585
H           0.99508054943757   -2.04267182537468   -1.30773809545920
N          -1.34292328634083    0.10439140464253   -0.63128667265155
H          -0.82938483615348   -0.59337954664340   -1.18367385216223
H          -1.93490157207027   -0.33458730847421    0.11630277785318
H          -0.62427877352663    0.74513767702673   -0.15166263282660
H          -1.87770171243415    0.71967570991335   -1.24676872072132
