    26
        -50.45694988  Gyration_radius:  2.48194823313 Dipole_moment: 7.902
 S          -2.25070258474116   -0.40888609150026    0.38526457345956
O          -1.95280358144864   -1.04111183073069   -0.90929820187264
O          -3.61857456041701   -0.40167591051533    0.76466886065893
O          -1.45875691177355   -1.26015999763010    1.46123857330410
O          -1.61735837263269    0.92755406419321    0.42039546125512
H          -0.47020784483845    1.66280441280227   -0.30121494526500
H          -0.58423978963824   -1.42899944029868    1.06287189618805
O           0.29659876779155    2.08122726306036   -0.79708448072130
H           0.11013458315679    3.02097590358681   -0.81098357743292
O           1.09922477437390   -1.58104844406759    0.69765692448605
H           1.44496300176245   -2.15299014125147    1.38491045166711
O          -0.50936887353181    1.12764634514848    2.80068968554001
H          -0.83676689545056    0.36401574831585    3.28067416932471
H          -1.04081134150178    1.15123598049552    1.97437009110020
O           2.05982822936148   -1.52445714317130   -1.80878874461130
H           2.87618666898845   -1.03622661113797   -1.68503040014424
H           1.71851103579043   -1.72111676645877   -0.91045299259753
O           1.68405323379432    0.84875201748638    1.29998172733158
H           1.40168193388257    1.38383628245863    0.54084611812170
H           1.00424428575708    1.02261232695449    1.99187339313519
H           1.37481525710053   -0.63860225520053    0.94458591387973
N          -0.13542610285487   -0.06947579780225   -2.38639326808075
H          -0.45818887139206   -0.00871440565557   -3.34522269048522
H          -0.93430004466609   -0.50106154391440   -1.75145321973097
H           0.70948072197779   -0.68061067654955   -2.30905701975382
H           0.08778328113121    0.86447669137352   -1.99504828879253
