    26
        -50.46539762  Gyration_radius:  2.43468702102 Dipole_moment: 6.413
 S          -1.58330154144111   -0.11592063600759    1.72785162268208
O          -1.92741999090220    0.76271935805970    0.61142344557151
O          -2.03778634984850   -1.46349981631441    1.59184102805485
O          -0.13996160895842   -0.04253273762913    1.99914149392859
O          -2.29416049559567    0.52326128383431    2.99300577789010
H          -2.16353735614197    1.45855878417423    2.86959834926549
H           0.23393125131397   -1.39813264749036    1.19270158608744
O           0.44111686787444   -2.14658788732354    0.58065674093153
H          -0.06480710045214   -2.88282751110609    0.93189205718750
O           0.36221535725810    0.31441225031869   -2.63671252424230
H           0.19664036455370    0.21602576197257   -3.57454934039960
O           1.73470546347226    1.41611086866820    0.87209419892329
H           1.11995776950718    0.93935027633409    1.47322085949928
H           1.12530925477161    1.97168503405105    0.32003396128024
O          -0.17531473721163    2.34256260214507   -0.67136529763297
H          -0.04562180117538    1.86714250829486   -1.50269679770031
H          -0.89375689646888    1.86633695438909   -0.20761038611591
O          -1.37671612908900   -1.01557666433713   -1.26664569751246
H          -0.36810828372423   -0.19171814245230   -2.16649034402639
H          -0.91172987564736   -1.64666192201989   -0.69678789011684
H          -1.77900984343805   -0.37883546307416   -0.64201984347418
N           2.13497298555522   -0.49974173138808   -0.77828058427935
H           3.09686330381704   -0.72959344228820   -0.99906746979739
H           1.60204423136773   -0.20788590207251   -1.62530722092182
H           1.64868126605842   -1.30066162558859   -0.34389452044605
H           2.06479392454537    0.34201045685038   -0.05203320463614
