    26
        -50.45938508  Gyration_radius:  2.45570831688 Dipole_moment: 6.635
 S          -0.44365636885148    0.63466604954293    0.45930525000207
O          -0.16847007506414   -0.31479728998391   -0.63403576534548
O           0.39066586939379    1.89181225161900    0.24116232762003
O          -1.84911395417095    1.02939855686124    0.42282184909269
O          -0.09098938369243    0.02480885118392    1.74054987681817
O          -1.77999979418753   -1.93878668429136    2.18774610680231
H          -2.25082908022154   -1.70338563324918    2.98949076480180
H          -1.07028430704271   -1.25728743149546    2.08635288560366
O          -0.46540170815706    1.61555241945838   -2.54252347910138
H          -0.44759581466652    2.44822316801513   -2.06620990767628
H          -0.47696342804913    0.92998971711918   -1.85795972383859
O           1.92411041168695    0.00340837678237   -2.38849300540006
H           1.42125917299903    0.64487303153420   -2.90731924433294
H           1.26203281951588   -0.40877811530773   -1.81055192114350
O           2.47607740471019   -0.62832189058717    1.67222558523134
H           1.50911167749949   -0.46827954520050    1.71924549774400
H           2.81759599767356   -0.45794309124567    2.55193613021268
O           2.75404071315662    1.25120040540944   -0.19952645020221
H           2.65765702406504    0.81430332722289   -1.08161610305675
H           1.42060185776205    1.67449795167854    0.06994403393444
H           2.85993786711801    0.52145842098307    0.45149831241005
N          -2.53970659846972   -1.30113956301373   -0.24768161002401
H          -3.31132741144669   -1.63275902255427   -0.81648334982028
H          -1.61322434249804   -1.34525526999305   -0.71857205026674
H          -2.54860585983462   -0.24416639826436   -0.00560372268411
H          -2.43692271923484   -1.78329259221498    0.68429772261172
