    26
        -50.46648468  Gyration_radius:  2.45881140675 Dipole_moment: 1.147
 S          -1.07941263900817   -0.14964780525766    1.36987830246031
O          -1.64348906278096   -0.49996172224438    0.07250163652107
O          -1.51725128176870    1.12409911627680    1.87065566705751
O          -1.63450921526655   -1.23877246077848    2.40031037862870
O           0.36765312072121   -0.32482344929858    1.36571418492234
H           0.48795623005427   -2.04939622538692    1.31480114825170
H          -2.21316553695868   -0.72997298858243    2.95971857426487
O           0.35571127475549   -2.99477176075095    1.12023142628676
H          -0.40291354631755   -3.25616583907877    1.64560727000505
O          -1.27634416635824    1.31981891795388   -1.77542944017218
H          -1.56939393789632    0.69463986001114   -1.07231266967809
O           2.77689446642214    1.99227663672302   -0.58534493197042
H           3.42949395448946    2.14839505222002    0.09775602264621
H           1.92623424454379    2.30145846162600   -0.21919154258722
O           0.21768154582977    2.51910572005748    0.31048936263313
H          -0.36379545854128    2.58847507998149   -0.45456985119705
H          -0.32723807638548    2.12862427821332    1.01351254560320
O          -0.16111815953529   -2.28208970298615   -1.44828546683852
H           0.15163152663292   -2.81756852549374   -0.69576266131193
H          -0.89725919060793   -1.77338949916034   -1.06785566059038
H          -1.85570527211376    1.17696286035300   -2.52564033872814
N           1.07527793031175    0.02014008546918   -1.16863903634521
H           0.35555827164110    0.64766364254371   -1.57228274939555
H           2.00735855644747    0.43301542350944   -1.30130067337669
H           0.89298532823194   -0.02535338317693   -0.13293921629135
H           0.89715911347477   -0.95276174278493   -1.52162228077548
