    26
        -50.45541827  Gyration_radius:  2.39385229335 Dipole_moment: 8.252
 S          -1.41573728205175    1.33627579862231    0.67119940149974
O          -1.10585753153629    0.76559091836223   -0.64892951794774
O          -2.56559189318703    2.16947821469231    0.69963978399227
O          -1.70154392733227    0.07751038774247    1.59207113483534
O          -0.18778294985897    1.94514886453378    1.21508754187869
H           0.89524313482699    1.82467697740887    0.09701010323535
H          -0.90190303783832   -0.46831968991742    1.49161419031529
O           0.58445573852336   -1.39802502697860    1.41587000450468
H           0.46207461519487   -2.10675465646897    2.04883782073651
O           1.58963720575092    1.69645316470060   -0.61472698786126
H           1.28561507557115    2.23779237036550   -1.34554596734096
O          -1.76015986123343   -1.80015956915030   -0.67165565402399
H          -1.59413400199727   -0.83648509430227   -0.58317763572916
H          -2.45953630752277   -1.99499970719919   -0.04737870389543
O          -0.77541130973465   -0.56880143104542   -2.95180563538956
H          -1.36625283367352   -1.28653846881338   -2.68842769343951
H          -1.06114627588636    0.18517405789482   -2.40633436110026
O           1.66458053530837    0.68303192352539    2.52952267572838
H           1.09205314669125   -0.67607050786450    1.88217334353419
H           2.45348027601933    1.07573205092008    2.14968977269146
H           0.91768945956644    1.24412915057127    2.20177545107259
N           1.21002709737477   -0.84508823426835   -1.21337671912572
H           1.41172277963071    0.18186736840768   -0.98707389198008
H           2.04588630619422   -1.33371764779689   -1.51563671817332
H           0.82482364445157   -1.26789770599154   -0.35345122635694
H           0.45776821674932   -0.84000351795608   -1.96697050166114
