    26
        -50.46611833  Gyration_radius:  2.52533555877 Dipole_moment: 1.930
 S          -1.50182713037069    0.01775722885939    1.07777319940661
O          -1.31738343936285   -0.76357905274317   -0.13788390205266
O          -2.65551207876978    0.86924228378326    1.06414214995213
O          -1.74119131488203   -1.03836401014218    2.25720393931716
O          -0.25361913619982    0.68392927856069    1.44340561185484
H           0.65692950237795   -0.50361099824837    2.27060712931721
H          -2.69036463143928   -1.08629758201035    2.31054820091625
O           1.89956631326720   -1.31881044826144   -1.62938550674021
H           1.32958173634743   -1.44886392484795   -2.38935523670323
O           1.13349357491569   -1.29265172834238    2.59178596582426
H           0.55450702352083   -1.69000756113457    3.24524422989829
O          -1.96385092136120    1.42747220459719   -1.49634544015092
H          -1.72575284914924    0.51106672398653   -1.27069744941956
H          -2.46959982544197    1.70676368059262   -0.72144296655251
O           0.28574535062884    2.67622222370200   -2.08103509279612
H           0.34193030229691    2.68543340306073   -3.03779798451196
H          -0.61152170525408    2.31732477970729   -1.86405500726059
O           0.62128843059077   -2.56919621373231    0.24455062016164
H          -0.18614507481487   -2.03890464780031    0.09974095018862
H           1.51903760101925   -1.91085682737614   -0.91461635403858
H           0.96232185919552   -2.27689458981907    1.11215995039933
N           1.57880433375043    1.01441117331304   -0.43519718446494
H           1.74249587667865    0.08595294641636   -0.93375766949443
H           1.18951607827426    1.71929118446138   -1.11013788369833
H           0.85917897538190    0.87518800508347    0.32382588737860
H           2.44237111880716    1.34798245837610   -0.01928015672608
