    26
        -50.46652159  Gyration_radius:  2.42005536477 Dipole_moment: 6.377
 S          -1.43431413756042   -1.06690993553645   -0.35570585366831
O          -0.50942222542091   -0.95960262904817    0.78525091040531
O          -2.77911782480591   -0.72640817073151   -0.04470355185175
O          -0.88025581505366   -0.34121435416198   -1.50468602198695
O          -1.39283900840628   -2.59445614032927   -0.76767609831098
H          -0.47478120141428   -2.80101500027482   -0.95369043861214
H          -2.03107116494983    1.04402556192195   -1.68637337603120
O          -2.63974770193052    1.72723255155952   -1.36452742379318
H          -3.35335058552124    1.22900299255676   -0.95229108312447
O           1.35551949545586   -0.04811099364046    2.54484881827847
H           0.63971831048824   -0.41750657102486    1.99950074502663
O           1.52295212244826   -2.21734692520615   -0.20677736702105
H           0.77532478023494   -1.76878187148878    0.25824684897117
H           2.03437015050165   -2.65285678749795    0.47824948936719
O           1.59846897242210    1.92286866775445    0.71282663159336
H           1.74066586253152    1.31368456928489    1.46612456064328
H           0.62717965208153    2.09907120080297    0.74035640280544
O          -1.04392288524091    1.77005215231986    0.82223924989346
H          -1.63778791198556    2.00592911686232    0.08121900571677
H          -1.09871277569526    0.80991932567346    0.90011008261482
H           0.93601256035574    0.26883053343726    3.34674495791320
N           1.63710695498354    0.28614516073794   -1.28140972963290
H           1.99828055337443   -0.62658980521019   -0.96211618537942
H           0.60364836350293    0.11691414716396   -1.46198966024287
H           1.70047906022019    1.02178699571790   -0.47188889791621
H           2.10559641938878    0.60533621836555   -2.12188200565724
