    26
        -50.45909898  Gyration_radius:  2.47747261957 Dipole_moment: 8.432
 S           2.33779049204827   -0.47745400734646    0.66821120566053
O           2.38115252143623   -0.48964001269184   -0.80559633074768
O           3.54676499101120   -0.06436631830726    1.29082026245953
O           1.15518931648142    0.31042219581131    1.09366834681220
O           2.01898085374447   -1.95394323059822    1.09862845382806
H           1.17149676890338   -2.14871284054638    0.66037885795396
H           0.61232045489904    1.61536415508704    0.50754180404229
O          -0.51009009393034   -2.43846747276364    0.23431070310558
H          -0.72093323925210   -3.33753574968044    0.49030767024913
O           0.17755585061446    2.42144136749109    0.08398880293693
H           0.54636059158091    3.17765440540804    0.54218839516804
O          -1.65113139441064   -0.68433887039604   -1.52969109645223
H          -2.05056665308998   -0.09010489048568   -0.87224537225791
H          -1.28292239801032   -1.43128424497587   -1.02269234042486
O          -2.26397847146136    1.26423831245524    0.35716984447240
H          -1.41919302724770    1.75743870246511    0.28528834638680
H          -2.96596692960691    1.91272066035365    0.41902209778817
O          -1.09254504815690   -0.67171581006067    2.03455823305858
H          -1.69930653036519   -0.03859654205970    1.62487825271440
H          -0.80999173097695   -1.84625120743621    0.98796040691408
H          -0.19908106404739   -0.28662149574948    1.89091404347009
N           0.53421100664877    0.71663517598055   -2.03815530109672
H           1.34848734253851    0.16929232415539   -1.52294828253124
H          -0.34781509289199    0.13250033934583   -1.95740108358230
H           0.40079362822793    1.59228801850345   -1.51588543460236
H           0.78241784531682    0.88903703605158   -3.00522048531983
