    26
        -50.45167171  Gyration_radius:  2.45336991453 Dipole_moment: 8.906
 S          -2.18004055062856    0.89923073876856   -0.23550190628348
O          -1.46007954839483    1.10986639886237    1.01231857852857
O          -3.23947056415257    1.80362701028600   -0.50795520546101
O          -1.17573149257330    0.84054353182385   -1.35062799112187
O          -2.76912631376614   -0.56652615820863   -0.18388944581090
H          -2.08138909540473   -1.14933633801184    0.19373974845258
H          -0.00569511680032    1.75325922590679   -0.67394567219817
O          -0.87016491010297   -2.22536325279465    0.79246386415562
H          -1.26653783743931   -3.02868750056076    1.13135584955398
O           0.76758527552358    2.15380131414945   -0.20550290625641
H           0.36784288449089    2.62499749459143    0.53006399403421
O           1.80497472328785   -0.06162948161433    1.05640828961885
H           1.38022303580709    0.74260495201607    0.69715928963051
H           2.74886323778186    0.06519877346561    0.95313221449609
O           2.51541728909490    0.64738885708957   -1.70678182072197
H           2.05757855780316    1.35020295024455   -1.21464051978362
H           2.58189934735266    0.95758842708006   -2.61112660578898
O          -0.33741062264462   -0.58397316553442    2.67585262421668
H          -0.84757699185938    0.13092467924607    2.23193060832687
H          -0.65072388565571   -1.65352263372376    1.60319242088094
H           0.58335257374400   -0.40593831137775    2.42973310299524
N           0.43620534634583   -1.11181690593298   -1.32982611481776
H           1.36601528313026   -0.64696254304012   -1.34212868587676
H          -0.31427869764811   -0.29321868201192   -1.37337868644938
H           0.32503377710639   -1.73284419604392   -2.12399144756760
H           0.26323431559795   -1.61941518467229   -0.44805357675346
