    26
        -50.45909907  Gyration_radius:  2.47748965327 Dipole_moment: 8.430
 S           0.07371334847741   -1.82440464348471   -1.67524179335940
O          -1.36528431606845   -1.54037797820400   -1.52455774540739
O           0.45043036547339   -2.29812533308352   -2.96111864484492
O           0.83362518816823   -0.62673479366368   -1.24110615806471
O           0.40611777500216   -2.92625697860960   -0.60634995808588
H           0.15083667253623   -2.51782821938592    0.24005618413905
H           0.52347269386728    0.84891087543853   -1.49934107092091
O           0.29480167369498    1.82916655526605   -1.57127583651745
H           0.73621545596466    2.13445015265698   -2.36483994288236
O           0.08536951680386   -1.72667030389532    1.80904149303037
H           0.28690328461513   -2.38837582620392    2.47221933896488
O           0.98634750183612    2.19456429344124    1.02915493323673
H           0.77827600867305    2.13752721531791    0.07225122308291
H           1.27367038298482    3.09135713658575    1.20347787612206
O          -1.18397346515568    0.69626702255237    1.91100087441065
H          -0.39503039643745    1.25369007172628    1.80260770575995
H          -0.85372011444360   -0.21735612311534    1.99249145572799
O           2.14571967246530   -0.37198297353197    1.02071975867811
H           0.94487582159151   -1.24671676942133    1.61022747284497
H           1.84684172880381   -0.52738300727614    0.09675434942676
H           1.95091926752796    0.56168064191532    1.18572079396777
N          -2.01942649982015    0.71799920908333   -0.59880539933122
H          -1.75982858695048   -0.28436671918073   -0.99397540929197
H          -1.80469774858483    0.72076599868927    0.44018280760879
H          -1.39208491340450    1.38354267176311   -1.06871045561939
H          -2.99409031761897    0.92665783461800   -0.78058384267722
