    26
        -50.44258728  Gyration_radius:  2.64635253406 Dipole_moment: 5.724
 S          -0.33288368943204    0.53932802157469   -2.27922578760745
O          -1.45953921923068   -0.13444208132838   -1.67160053332944
O          -0.33051725986687    0.67904665696356   -3.68597011263075
O          -0.20140717494964    1.94835590904975   -1.64078194004354
O           0.95026503359743   -0.18815547537373   -1.79549265970234
H           0.62316804761521   -0.89353229218662   -1.13073236367839
H          -0.34624527980681    1.89082086180304   -0.65830849130200
O          -0.76220544568937    1.86833661864384    0.90876272345889
H          -0.78871892551100    2.76098607240901    1.25820702510125
O          -0.00977895101063   -1.88363107936397   -0.18762692553237
H          -0.89390323714103   -1.69557103728230   -0.52798426015635
O           2.93527740049361   -0.43977427893478    1.84866531683354
H           3.47329771925852   -0.90859852368734    2.48794849614472
H           3.03021364650335   -0.92566856910923    1.00161773618693
O           2.89790625788409   -1.87349890027795   -0.45072872396220
H           2.76070777954323   -1.25318799113302   -1.17381053356964
H           2.06591607944188   -2.35081085956308   -0.35274487866966
O           0.24594419768272   -0.49545925589787    1.98871437194082
H          -0.05385354656558    0.38530564358384    1.71785804516946
H           0.04545443458332   -1.43312330104418    0.71010236296419
H           1.22209232528945   -0.43164990405504    2.05812565476021
N          -3.14573264643687    0.95768425804427    0.33040374153742
H          -1.71899068495650    1.56157235884473    0.78647980546988
H          -2.76465683194399    0.48396438887903   -0.49057946608668
H          -3.55865103417734    0.25604885386963    0.93165465130863
H          -3.88315898507736    1.57565392547662    0.01704672543011
