    26
        -50.44258735  Gyration_radius:  2.64651370532 Dipole_moment: 5.724
 S          -0.17878126534213    1.14703250823480    2.06151367698280
O          -1.36735510429853    0.40286468936042    1.70651216771547
O          -0.27055298071310    2.05918439320294    3.13765325043170
O           0.96043939037870    0.13650253600112    2.36406357412308
O           0.31554284281525    1.86075288117263    0.77466638983743
H          -0.31122205986067    1.53874243724312    0.03313048241758
H           0.94928687698634   -0.59814059630088    1.69351109448678
O          -1.31461892055446    0.98283591481393   -0.94395551340348
H          -1.86931214348372    0.63844124916754   -0.23219351532166
O           0.84498381469127   -1.90558888170891    0.73993734779161
H           1.48076991438984   -2.56895129703140    1.01438782262847
O           2.06174275699781    0.56080530829506   -2.76897389776695
H           2.21447782500240    0.63277012780096   -3.71203026887952
H           1.68645686060687    1.42184568986356   -2.48558008291536
O           0.75174137323208    2.78554333341080   -1.94514824028246
H           0.97837282904659    2.92740197512341   -1.02051359192588
H          -0.15922258314743    2.46965080779343   -1.94680914556422
O           0.10530571185722   -1.01399833232178   -1.79541293101229
H          -0.84815270744579    0.18662348281870   -1.34453998158486
H           0.86100719445348   -0.54545792528776   -2.20916992289987
H           0.45296744772816   -1.39503779962910   -0.97509262461825
N          -1.56767201833000   -2.42474710528461    1.60854647754330
H          -0.06887429280248   -2.21682342667098    1.04402993813702
H          -1.71755875712384   -2.90057571575667    2.48888611661794
H          -1.72666756709106   -1.42728095663638    1.76127293624136
H          -2.26310443795530   -2.75439528775823    0.95130843129308
