    26
        -50.45437697  Gyration_radius:  2.45349100565 Dipole_moment: 8.406
 S          -1.78646796308237   -0.26467932143773    1.45344195293546
O          -0.60455947523219   -0.95224839028082    2.04371873562850
O          -2.67007950444469    0.26635164574489    2.43173450865550
O          -1.13715774260365    0.94877032299027    0.63397745419168
O          -2.38107770269409   -1.08994139312206    0.41585723876267
H          -1.60271945831774   -1.17018808070879   -0.90127175825307
H          -0.37977147979261    1.23905637990732    1.20328542220641
O          -1.00854942134890   -1.35289528176505   -1.69654003023065
H          -1.58069571567063   -1.73486224944772   -2.36340552347185
O           2.39701457894335    0.11942267020019   -0.08790635680988
H           3.29418206659678    0.33045390972511   -0.34835928310889
O          -0.81691172824994    2.75698909554474   -1.37619293272213
H          -0.58602436921474    3.56639968028190   -0.91752860565181
H          -1.17878847149376    2.15529185923566   -0.70424077893981
O           0.99589561477555    1.18466936401312    2.08352535063715
H           0.61626154972852    0.38071569704481    2.47584623111944
H           1.63610849690789    0.88256046161059    1.41673158389851
O           0.82386907700753    0.70662602924777   -2.05059382810763
H           1.80751739982161    0.42487607400670   -0.84589989542974
H           0.14183836453528    0.01389181830557   -2.04532293918465
H           0.32825990194931    1.53974773166154   -1.92955964105213
N           0.76081965283212   -2.02160302370295    0.20843274623181
H           1.06566711828912   -2.96908113472381    0.39872308702554
H           1.56056859456998   -1.36733684302654    0.10484116875537
H           0.16693338088232   -1.96861437853380   -0.64439640446675
H           0.13786723530982   -1.62437264276924    1.04110248738053
