    26
        -50.46179019  Gyration_radius:  2.43780914837 Dipole_moment: 5.889
 S          -0.22316009473402   -2.05817596151464   -0.13898226046176
O          -1.24884470804601   -1.42347282177879    0.72114924860813
O          -0.40025329658241   -3.45534207169252   -0.30813742586089
O          -0.11203385997862   -1.28324659216422   -1.38526412861594
O           1.14426898986337   -1.82353665095189    0.62078465127606
H           1.42355298071076   -0.90428239771677    0.43813096869185
H          -0.92809483406150   -0.04969314546261   -2.01777015839661
O          -1.38103180254262    0.77690945939073   -2.32957823447595
H          -2.03924582412245    0.49009910882584   -2.96372661344861
O           2.13678132561948    0.63065947720737    0.14197854301014
H           3.07883086178202    0.54775146334596    0.29967990060710
O          -0.04860098428788   -0.56889885892176    2.93296176482322
H          -0.56513383311681   -0.98152624026337    2.20823499963385
H           0.72248018469238   -1.12934396012561    3.04097206671165
O           0.25695586708460    1.82315701637909    1.75558713787437
H           0.17198410173211    1.06847122211233    2.38024910750527
H           1.02060948521079    1.59647667456365    1.20106162609277
O           1.66697943700264    0.36812041788919   -2.41037013188733
H           1.04719237091440    1.00459570512700   -2.77794693414689
H           2.01933730158666    0.63857063103144   -0.84733305589901
H           1.12054905122128   -0.41427640112389   -2.18103637068702
N          -1.79526364876236    1.05694198372089    0.31766252216895
H          -1.71742277223121    1.21800719029462   -0.70591438630357
H          -1.00362764932488    1.52823692229416    0.86034951202001
H          -2.69927913577776    1.34515699107476    0.67460282376485
H          -1.64752953385371   -0.00135915154030    0.47265483739305
