    26
        -50.46003570  Gyration_radius:  2.44893590036 Dipole_moment: 7.566
 S           1.21841014960630   -1.13460466053260    1.15170218489415
O           1.81929860720600    0.19020864544173    0.89354649693441
O           1.87909030763773   -1.89362904046059    2.15343555505470
O          -0.26655752173444   -0.79084985496940    1.65688395089811
O           0.97892128783613   -1.82342997703709   -0.11541083941082
H          -0.44588721821739   -2.09281458893597   -0.90045981287587
H          -0.10334152642790   -0.03585591988660    2.28210654468561
O          -1.26455505580194   -2.14468407492510   -1.45106942516304
H          -1.68141920364573   -2.97523403395784   -1.21905456815452
O          -1.17406531246444    2.70555056173769    0.80894156301844
H          -1.83770731362007    3.27706117760156    1.19842421376947
O           0.39790357978427    1.44560345602855    2.74723831335666
H          -0.08952537398268    2.04162297250949    2.15044107321387
H           1.23276709450751    1.24815053577568    2.29112116061710
O           1.23236356740034   -1.13121274116779   -2.68608172038643
H           0.41903902193189   -1.55665627643679   -2.97727534719221
H           1.41990927272864   -1.53295938442967   -1.81405852889737
O          -1.81607442442228    0.20815499638867   -0.28940781300355
H          -1.40114250339225   -0.18307868956427    0.50796489734317
H          -1.64407316894374    1.94245625346312    0.44267404882423
H          -1.92537551358637   -0.56386589840604   -0.87835375443983
N           0.60646349716495    0.98918557260731   -1.21286322330547
H           1.18421400197030    0.71727030863575   -0.33674552330068
H           0.77787709170286    1.95391575289768   -1.47444173047240
H           0.88136873590955    0.30515750169802   -1.96583046547239
H          -0.39790204914835    0.83453740593381   -0.96342724053530
