    26
        -50.45699478  Gyration_radius:  2.42404122142 Dipole_moment: 8.060
 S          -0.81507557824474   -0.07496887270395   -2.08310249886221
O           0.16919679128675    0.94823957657044   -1.67184272224202
O          -0.65223937062985   -0.53514495601210   -3.41684701287631
O          -0.78269100005470   -1.15221540186962   -1.07049040656917
O          -2.21570187804892    0.61224679150670   -1.93053024382131
H          -2.17101517741033    1.04119491029391   -1.05175817759384
H           0.69089855574707   -1.49349442140635   -0.71556554818586
O          -2.15021328970293    1.58379680558149    0.58106403669988
H          -3.05217488494337    1.88632268455369    0.69855045480371
O           1.60598705106196   -1.72306997684028   -0.37382355862506
H           1.84372447064274   -2.53831926757273   -0.81795373669242
O           0.79016406571090   -1.15195140702643    2.10827610469514
H           1.11777262857547   -1.50907247335762    1.25162470563460
H           1.45479154632241   -1.35914364733984    2.76636158682784
O           2.83014305314131    0.78978415242816   -0.59737393186129
H           2.31030231648705    1.07968177331543   -1.35769235063943
H           2.63630412958024   -0.15965322665150   -0.53176309859219
O          -1.91211221777678   -0.92258915606589    1.28424468362175
H          -1.16952635520639   -1.16532292134208    1.84957425000742
H          -2.12009924257684    0.66255700989052    0.95673591973303
H          -1.61488180985012   -1.14566169656127    0.37199833991037
N           0.63223520392282    1.28050208621626    0.79584002371537
H           0.15159564701185    2.08586618075118    1.18267077042083
H           0.27800584159876    1.11033902834516   -0.23619206768159
H           1.64894529974558    1.41297150275626    0.63011327356403
H           0.49566419360827    0.43710492254224    1.37788121461067
