    26
        -50.45551710  Gyration_radius:  2.46455654094 Dipole_moment: 3.964
 S           0.88070752327400    0.52117733895683    0.36917055005597
O           1.72081084817586    1.15374960485934    1.34339629895552
O           0.47914293197046   -0.84923958754839    0.73563909158218
O          -0.44667066675394    1.32754410061200    0.21128725425706
O           1.44494129094538    0.50175295774844   -0.98830813460919
O          -1.74139830469774   -1.00309246491195   -0.52358925156173
H          -1.93897267320708   -0.06028257140241   -0.57158330905011
H          -0.92325055751962   -1.04041295308852    0.05204118422924
O           1.54894309310635   -2.03302727463972   -1.49811941517547
H           1.70406629536797   -1.06333689661900   -1.35064727518644
H           1.33668859037003   -2.35519992027187   -0.61358912083648
O           0.69416578769907   -0.18667509907600    3.38905737276871
H           0.48941321347281   -0.88820197180502    2.75924943218693
H           1.30843360988318    0.37713344924182    2.88369287017072
O          -0.01905448516705    0.80738640465612   -3.08358441529178
H           0.57663256809448    1.08325177112667   -3.78257961539276
H           0.51096312901398    0.84547213877310   -2.24032656132432
O          -0.62635967313663   -1.61575830990841   -2.68040631838819
H          -0.43460646952976   -0.65952388518704   -3.01346903803796
H           0.29424400535223   -1.92898539358796   -2.27395841023769
H          -1.21791189051732   -1.44810659743109   -1.82319840121112
N          -1.18692583607317    1.72605420064041    2.61815730550014
H          -0.77358530171691    1.54217243959612    1.17948951726782
H          -0.90471192424448    2.64048053355673    2.94495264788368
H          -2.16037629008128    1.58274251089584    2.85256779245002
H          -0.61532879417076    1.02292550477455    3.10465793897397
