    26
        -50.46018587  Gyration_radius:  2.387420883 Dipole_moment: 6.525
 S          -1.94529280566848   -0.18905852535594    0.34092274198832
O          -2.17006177946001   -1.61207288094085    0.06538023341424
O          -2.99133198077618    0.50766668477423    1.00485995982518
O          -0.63121547436438   -0.04370835685355    1.00042877100408
O          -1.78507390449773    0.49363397889005   -1.07951831271586
H          -0.96130061828967    0.18407367809548   -1.50646396592143
H           0.91226743792871    0.64045407009288    1.32843231138301
O           0.57540532508840   -0.15718100653051   -2.17579028340113
H           0.57375966177510    0.04097781228191   -3.11357436189190
O           1.83126609028043    0.93638738169427    1.48133384278385
H           1.76725564197772    1.65385881310095    2.11444661718342
O           1.17481517879391   -1.87726887043855    1.75330364593670
H           1.91517320846767   -1.25954843659775    1.77947933239348
H           0.38275964207707   -1.30676435890495    1.78863730358212
O          -0.90608597862070    2.60324459340737    0.56758284304042
H          -1.79711525989633    2.87361915623274    0.33810510747237
H          -0.99515651821113    1.67694294120337    0.84289099516951
O           1.28614834879461    1.99578507477824   -0.97022999994647
H           0.46403408074666    2.37397397286106   -0.59968208192520
H           1.77258425477340    1.68446012848667   -0.18496279068343
H           0.92834699715950    0.67767994626728   -1.72052530039656
N           0.14180806594794   -2.40355247423587   -0.63304031016814
H           0.46334883469531   -1.67906083882660   -1.29342482720240
H           0.18443263852170   -3.33015597946840   -1.04292856704662
H           0.70109754273383   -2.34167940933947    0.25998962771639
H          -0.89186862997236   -2.14270707466746   -0.34565250159691
