    26
        -50.46003573  Gyration_radius:  2.44905172191 Dipole_moment: 7.564
 S          -1.03051228667051   -1.60488670248235   -0.67850178214489
O          -1.93332083963888   -0.46030880560190   -0.43806312775862
O          -1.62281422173125   -2.67942322343145   -1.39306721055351
O           0.15236404296447   -0.98092503713072   -1.56709403464948
O          -0.34810491104864   -1.96474194217800    0.56340509417189
H           1.21933906337918   -1.70145374942179    1.00283662204593
H          -0.34940145948313   -0.42240464761833   -2.21811010084733
O           2.10920764426633   -1.43466424779279    1.33904230157308
H           2.69972600142456   -2.15285623926463    1.10908918838673
O           0.12991569595940    2.72546504730283   -1.38458528723946
H           0.50302944102779    3.36828629248984   -1.98977710490138
O          -1.35129536795551    0.76483927657748   -2.71712962280816
H          -1.98048917423888    0.44173453677540   -2.05100664072788
H          -0.95398718198365    1.56658664626863   -2.33187666816822
O          -0.27588671588251   -0.90880122136704    3.01914905803264
H          -0.50595463137131   -1.49702038425341    2.27208815433027
H           0.66821626872305   -1.04518444555935    3.15116531294989
O           1.69006793519007    0.72848339132586   -0.18808795773168
H           0.86799300032805    2.19267151390456   -1.05477251269729
H           2.14001574023941    0.13285937041592    0.44256666255339
H           1.25959477195330    0.10362806893642   -0.80873254038821
N          -0.61809794192296    0.99839490077841    1.20137771376748
H          -0.52004699093103    0.41418202776144    2.07282126490732
H           0.31538090007302    1.07144479523381    0.73426954347644
H          -1.25166749879011    0.42947899518576    0.53021759753420
H          -1.01327127388794    1.91461579314619    1.38277607689099
