    26
        -50.44677254  Gyration_radius:  2.45121116465 Dipole_moment: 4.961
 S          -2.01338588990870    0.42912344154205    0.60512113433463
O          -2.51982485570383    0.95694269757199   -0.63059584746959
O          -2.93849544837603    0.00139224639214    1.59556412191453
O          -1.07161268266388   -0.75157883642066    0.27793797222491
O          -1.09694836397803    1.48988724754954    1.26824862650308
H          -0.32159254521319    1.73081473395844    0.67809622442101
H          -0.73330827058537   -0.81508987777766   -0.67088392615392
O           0.89444512429780    2.02687346477634   -0.25796183186679
H           1.14110187595596    2.95362212351579   -0.23892335267036
O          -0.07270336511854   -1.15855380402832   -2.04602540557923
H          -0.48888667112094   -1.96187537252760   -2.36290316189641
O           1.63275600397104   -0.30493208506722    1.48888781569696
H           1.46809905620760    0.54042548720607    1.05950722217825
H           0.83742120300434   -0.51470846355757    2.00953822066631
O          -0.69011247869011   -0.61396055891947    3.06294147262753
H          -0.70048354696805    0.10161435615490    3.70245386952202
H          -1.53568256401020   -0.56321273910842    2.59370532262826
O          -0.55019360446838    1.53380386746768   -2.33651573034759
H          -0.31783306660043    0.62528381947106   -2.57812082553609
H          -1.40123361426159    1.45468735496745   -1.85957144946484
H           0.44087402807711    1.87061572605056   -1.14259257754279
N           2.09520011759140   -1.85223714990000   -0.82539062613297
H           2.17684175840237   -2.84013896286528   -0.62101299368407
H           0.83076426018061   -1.43611343566645   -1.63011414240928
H           1.95793253701819   -1.36393857040162    0.06959524498079
H           2.97686100296086   -1.53874670036085   -1.21098536694213
