    26
        -50.45551717  Gyration_radius:  2.46459661251 Dipole_moment: 3.961
 S           0.45675523627376    0.59824706980093    0.78467640099722
O           1.11807764775359    0.17171292401798   -0.46202845677975
O          -0.47572264155557    1.69199356586450    0.47538658573887
O          -0.47608130146636   -0.58296309756909    1.19920891075248
O           1.37111643705925    0.89192628303805    1.84894885350753
O          -0.73719882643088   -1.27449337117441   -1.46569389577315
H          -1.19799127023910   -1.49561982105095   -0.64776431995385
H           0.07570325928005   -0.78350178493923   -1.14933231869202
O           3.21098158649088   -0.82291050855561    1.00638197189308
H           2.80800155970950   -0.09024190734766    1.50777501002880
H           2.85521560486605   -0.68902286289445    0.11969903611688
O          -2.92330024564207    1.25610902567359   -0.19291648752964
H          -2.01976483949114    1.36734930803965    0.21288762252783
H          -3.39241374807305    2.07468666867871   -0.02145096997844
O           0.05885723791745    2.17631256146775   -2.00956156864865
H           0.84814496014476    1.62630594160533   -2.08532618757767
H          -0.11220942932648    2.18683911317255   -1.03140338541428
O          -1.92319428289475    0.69940020476562   -2.44966279882199
H          -1.48044602335868   -0.21342218052178   -2.16091700918022
H          -2.48382850818566    0.95079634648893   -1.62228119567799
H          -1.11397543359718    1.37408124502857   -2.41868237618827
N           1.14232213095767   -2.31084260552482    2.14522477163428
H           2.02993701489827   -1.95955263675749    1.76239974653168
H           1.02470865381597   -3.27892654576417    1.87693975169930
H           1.19232221860277   -2.25635232008555    3.15371500919536
H           0.14398299251024   -1.30791062544886    1.62377731959800
