    26
        -50.44592105  Gyration_radius:  2.58164060117 Dipole_moment: 6.944
 S          -1.14180834879281    1.15876428625868   -2.06747336172551
O          -2.12544490074839    0.84594200646108   -1.05326419778441
O          -1.47769802131677    2.17737391328178   -2.98899002701540
O           0.19415791212212    1.47937145606215   -1.32041678034713
O          -0.76559184458994   -0.12194741704537   -2.83554201928196
H          -0.44784586338273   -0.83735133162050   -2.19925860841510
H          -0.08442510624190    1.91564954372949   -0.44811057704836
O           0.17940394756892   -1.92460858813891   -1.26357100186826
H           0.46593099815663   -2.66304494623611   -1.80339633688192
O          -0.58511519108964    0.20779798339210    2.46925346217980
H          -1.15557993091327    0.19290931574750    3.23917552815418
O          -0.86842118081755    2.33835091278539    0.81615763454251
H          -1.71106218248946    2.06593058018725    0.42474726278841
H          -0.66612291636162    1.67035733510542    1.50606868963316
O           2.08117615739425   -0.48993125804289    2.35128916247627
H           1.16988621767431   -0.15772469924430    2.43356349413559
H           2.16909600454538   -1.20356702628085    2.98456641369825
O          -1.72144382879875   -1.20973327964538    0.60638819662465
H          -1.07404361664207   -1.69438080861832    0.07366041290943
H          -1.01061226987298   -0.39562333938550    1.79317658815650
H          -2.04423030622805   -0.50131420121806    0.01497057759474
N           2.22318607402991   -0.54823949767571   -0.52952337887507
H           3.14297268788281   -0.72071235303066   -0.91360147211342
H           1.03405989800964   -1.42605897305354   -0.94946766323073
H           2.30041971694701   -0.53115316610455    0.48798397573215
H           1.91915589396294    0.37294356233991   -0.82838597404172
