    26
        -50.46269060  Gyration_radius:  2.40620284947 Dipole_moment: 8.511
 S          -1.20249658545212    1.00342400631087    0.25925236325536
O          -0.96056123138923    1.46433562967541    1.63027160076656
O          -2.43464257819393    1.44297216156745   -0.31399034180987
O          -0.04663948571772    1.64315808554467   -0.61430531853587
O          -1.00084429297086   -0.45063345993733    0.18610314189676
H          -0.74862982671275   -1.56508254631846    1.38956178011096
H           0.80683875539886    1.30942883127018   -0.27129671209563
O           2.26024316689031    0.48356203433380    0.15589708021399
H           3.05723525446484    0.79457014900952   -0.27569632759495
O          -0.48380565650959   -2.04213978811451    2.21104648472147
H          -1.29353440806385   -2.20258007600162    2.69800680658146
O           0.26522605482381    0.39109359482451   -3.18171249046749
H          -0.67667290383809    0.12253830627720   -3.13163358010145
H           0.29697358063270    1.22210371299327   -2.69695164985903
O          -2.23624783911798   -0.21869674508839   -2.38936205768759
H          -2.42093633140016    0.47374431898768   -1.72577032112180
H          -2.19277857300238   -1.03645338915689   -1.88835451577261
O           1.09775281343034   -1.26165668893649   -1.26780835990282
H           0.92148905197012   -0.77820445113627   -2.11115734069501
H           1.91398189348973   -0.29592775497678   -0.41160909068429
H           0.26197302890456   -1.17741849353502   -0.76995842149700
N           0.99595101670190    0.13150902569880    2.53218712116390
H           1.69437575681397    0.18255925169448    1.77115682862112
H           0.58401559373601   -0.83327638675531    2.57756638294886
H           1.38700864389437    0.42611714816646    3.41999094117399
H           0.15472511118589    0.77095353358496    2.21856598636084
