    26
        -50.46194732  Gyration_radius:  2.60677305334 Dipole_moment: 3.969
 S          -2.54382591701412    0.28717762351539   -0.07930949856141
O          -2.27586850466035    0.86025342182951    1.23036204994454
O          -1.62433034386539    0.74825058834527   -1.09630402000719
O          -2.64853799336860   -1.16344578504355   -0.03600556304730
O          -3.98164395261670    0.81863464461035   -0.49952444167808
H          -4.51468303485920    0.47289943178326    0.20843095362475
H          -1.21123421257007   -1.57086363375570   -0.41770305149258
O          -0.28966579118522   -1.87444835536294   -0.66667282049740
H          -0.41213336222130   -2.72876196167112   -1.08461739511982
O           3.36576081483829   -0.79530729925718   -0.08877861436260
H           3.86287479137459   -1.61051302954298   -0.16192193251613
O           0.15638435219152    1.19750220872752    1.99084152051906
H           0.11512399652367    1.57759495697404    2.86954849548769
H          -0.79078915150387    1.04151324705825    1.71892960341993
O           0.40762422628317    2.27148181724105   -0.50554077216292
H           0.48650125552114    2.09447231507567    0.44877188625568
H          -0.48591212122138    1.93292995670088   -0.74154191863626
O           1.33075198672966   -1.22294084930698    1.50714450902306
H           2.69972966961459   -0.94191953910259    0.63716024589459
H           0.96121581805712   -0.36197404261314    1.77835501761817
H           0.69407473392250   -1.58222544152093    0.86888509329216
N           1.35320340747058    0.10272890066553   -1.59845538736798
H           1.05531721839275    1.05316115691151   -1.17593818695656
H           1.44438339048929    0.18725959873501   -2.60434577115278
H           2.24431266949988   -0.21475301434850   -1.14474375600335
H           0.60136604416432   -0.57870690664977   -1.35702623552309
