    26
        -50.45551723  Gyration_radius:  2.464444795 Dipole_moment: 3.958
 S           0.15659717861967    0.92439150236532    0.54988993358724
O          -0.58673348293652    0.99114226302112   -0.82137101455985
O          -0.89111533036905    0.52172293724969    1.49936329759934
O           1.13277756379867   -0.17355247457393    0.42669058875345
O           0.75358088640148    2.19471780227689    0.84095945047547
O          -3.01069050252214   -0.73032517617354    0.74618731524411
H          -2.25107326872716   -0.11905088901424    0.95293318059692
H          -3.65913302428047   -0.58894360125602    1.43833962490714
O           0.03578991501374   -1.71227228383474    2.41878332248172
H           0.91778824455705   -1.66085603081137    2.03078273208593
H          -0.33135108151667   -0.80344427564714    2.25936836851257
O          -0.14749738873478   -1.71798903922194   -1.15968008512817
H           0.46732017803652   -1.17513657212573   -0.58582774807053
H          -0.71311449521704   -1.05467252328800   -1.57235302533410
O           3.03232071263189    1.62599084448676   -0.39299948270075
H           2.84290691329252    0.70055649279645   -0.19640637029062
H           2.39955499282257    2.09633651227678    0.18024570380602
O          -1.47640224881471   -2.74208941971952    0.69929146702620
H          -0.84288575748472   -2.45844350322918    1.49238094372798
H          -2.23408010590650   -2.04420730008273    0.72896962172260
H          -0.92884878488402   -2.45356539486884   -0.15491288268697
N           1.11174442749034    2.10717639355621   -2.36057417004491
H           0.94096308601603    3.10073973790561   -2.43939073681829
H           0.06354254581797    1.47258100674520   -1.48139596996845
H           1.24671785441348    1.72534777132199   -3.28743777080065
H           1.97132097249023    1.97384519981931   -1.81183629413577
