    26
        -50.46194809  Gyration_radius:  2.60709294728 Dipole_moment: 3.988
 S          -0.91034419332010   -0.27445040331141   -2.37910047254062
O          -1.56279678318060    0.97686771120611   -2.02657016824698
O           0.49008141943188   -0.30312095259320   -2.01831973492719
O          -1.63792830446905   -1.43442085422731   -1.88691142362582
O          -0.96747610401106   -0.36059782896892   -3.96529787221900
H          -1.90688222009486   -0.33000489860719   -4.11204342283398
H          -0.88761695274352   -1.72469134455051   -0.57127513158412
O          -0.42439205573532   -1.94755961073526    0.28843822945560
H          -0.52772107489643   -2.89550175683774    0.38921437828218
O           1.16777024412983   -0.06963430133520    3.25627985622485
H           1.07895442933033   -0.67879768014144    3.98982309543551
O          -0.96965600126837    2.10411890666941    0.20618666929428
H          -1.50827827740464    2.89471774019674    0.26234245004164
H          -1.23137966393017    1.65852867278934   -0.64727113374884
O           1.57882260454728    1.62965354504373   -0.64886107681836
H           0.78417464979000    2.03277586385042   -0.25611618326462
H           1.22899896500232    1.05991675391115   -1.37127312504035
O          -1.15257961955916    0.09129137233571    2.04703338788319
H          -1.14535639044962    0.86993445764951    1.45968223764618
H          -1.08247156573182   -0.67398839394105    1.45444164431070
H           0.24518008720448    0.09126816846008    2.91742325945388
N           1.88842505976065   -0.55911180254079    0.73098602617424
H           1.07444048998203   -1.11755831320217    0.39428292001774
H           1.84710062016889    0.39010021049122    0.21325022700750
H           1.77343416374667   -0.39709953570788    1.76123591772223
H           2.75749647368942   -1.03263570592961    0.51241944591416
