    26
        -50.46194770  Gyration_radius:  2.60680195848 Dipole_moment: 3.968
 S          -1.75395398451771   -0.33041288648504   -1.83695103946361
O          -2.26502066922805    0.89259393324194   -1.23800355197688
O          -0.32346512115063   -0.30029240180814   -2.05010985663484
O          -2.18748470906295   -1.51966253332966   -1.11936338394541
O          -2.42100202007244   -0.41910839475307   -3.27702581023399
H          -3.34400948765430   -0.43091692592411   -3.04683913076175
H          -0.97723649959298   -1.76300526918283   -0.19572353377693
O          -0.20855883256143   -1.95658182986669    0.41680127369777
H          -0.22509748420284   -2.90666662679251    0.54562489955563
O           2.35022443705418   -0.00429638653267    2.53932710274213
H           2.57838677933803   -0.61142609775958    3.24385161037478
O          -0.88959095538744    2.06824014371224    0.58793488170155
H          -1.44656494741895    1.60271854082371   -0.09650642293006
H          -1.39496012460602    2.83738476943826    0.85500017428943
O           1.13595556196986    1.68676779764510   -1.20134780671269
H           0.55408548631469    1.09835905938393   -1.73417624608888
H           0.54321030845219    2.06143108175219   -0.52565889056259
O          -0.26225365755629    0.06384094382167    2.33763123334391
H          -0.40221743182770   -0.70169452193416    1.75779654651991
H           1.36325243999139    0.12008826564767    2.59043132796106
H          -0.51364224803937    0.83887290057460    1.80150464573610
N           2.04050197959406   -0.48020757448334   -0.07092490401275
H           1.76578894003350    0.46374139493665   -0.52271924100454
H           2.33300981589061   -0.31692684866675    0.92337838468675
H           1.18011780261229   -1.06975421201089   -0.06691042354416
H           2.77052464162784   -0.92308633145166   -0.61702183895924
