    26
        -50.44584635  Gyration_radius:  2.47508647988 Dipole_moment: 6.187
 S          -0.94121480942006    0.01933403970808   -2.15984818803979
O          -0.43717823405969    1.37008459121305   -2.06251064875159
O          -1.60652114178596   -0.36280598981063   -3.34867386810350
O           0.23220048735496   -0.95519657054319   -1.85732662938791
O          -1.85991408378739   -0.22518190302389   -0.92738658081257
H          -2.00782287386654    0.72310839617053   -0.49789256559708
H           1.07609807231346   -0.37830391964065   -1.80985938001806
O          -1.94099989362246    2.05794711688279    0.05548014675605
H          -1.36648463686480    2.40025987665774   -0.64389626362673
O           2.10542063734300    0.46511670163744    1.04796472443832
H           2.91202943331512    0.47777735795665    1.56470518907329
O          -1.60550006302092   -1.27309026442087    1.60260199656201
H          -1.72420375581834   -1.06873443059543    0.65848476090613
H          -2.48556673180868   -1.31551558300792    1.98126557527921
O           2.10395592424181    0.72531308358524   -1.63299617945019
H           2.20661653111928    0.76281367100419   -0.65764842470075
H           1.43417468616503    1.38705142361388   -1.86716109267176
O          -0.38009306239495    1.20854877909624    1.98548504511200
H          -0.75124477194658    0.31183003490257    2.04195098779010
H           0.53640227863354    1.09500937423864    1.68164665672531
H          -1.36693124282954    1.90346994521032    0.85545997512035
N           1.16364820828494   -1.98390291163977    0.80850817370041
H           1.70553209632862   -2.81874472540064    0.99135043221162
H           1.80332137220505   -0.49650099616539    0.99353003257793
H           0.87939439403005   -2.00009825063417   -0.16671376717884
H           0.31488120989729   -2.02958883702667    1.36347989217947
