    26
        -50.45551712  Gyration_radius:  2.46460702766 Dipole_moment: 3.959
 S           0.48817590074464    0.36038852650627    0.90200796087506
O           0.18516584229827    1.17256050757997   -0.29042760481484
O           0.62559302134992    1.13135051933606    2.10275542342171
O          -0.69978803844337   -0.64170948435948    1.04989788787124
O           1.64176489697027   -0.50182553194298    0.60681061924764
O           2.38966004468671    0.36573252434588   -1.71334697588475
H           2.29372553456644    0.06697532454041   -0.77115948282851
H           1.82530103816718    1.14758115125888   -1.75100643540176
O          -1.07178118618840   -0.56064173706249   -1.68898634034932
H          -1.36936236767957   -1.12977141381623   -0.96940680042549
H          -0.64838331107958    0.21235404935596   -1.21431949109008
O          -1.04405981968666    3.03321974298765    1.30831411448396
H          -0.79754640141837    2.80240948209840    0.40466977302674
H          -0.35999985945465    2.58072512165685    1.83550194685513
O           1.37033859597832   -2.84760126701121   -0.41901375722661
H           1.40287160406958   -2.00387963164800    0.11050948852592
H           2.17965149314247   -3.31936080946758   -0.21402298090213
O           1.04156105210161   -1.56804619664737   -2.57744110484825
H           0.08688945268569   -1.18483853642480   -2.34371748352525
H           1.68011783792749   -0.75745564211132   -2.36254353543665
H           1.21564318234520   -2.22844756624925   -1.80584866856673
N          -2.57957907705607    0.80332290495296    1.98664631376658
H          -2.64212128181809    0.72053531107577    2.99254762750747
H          -3.50614781176393    0.70346721555392    1.59345849383003
H          -2.21796520697975    1.74044477089141    1.76556954733362
H          -1.48972512546406   -0.09748934540005    1.46255147454399
