    26
        -50.45870565  Gyration_radius:  2.61734087594 Dipole_moment: 1.547
 S          -0.14946915296542    2.18538924773858   -0.02169264819966
O          -0.41656513300867    1.46099915133010   -1.25566682850884
O          -0.76771305120962    1.54882101146922    1.12666972999362
O           1.26826245677718    2.44698638471435    0.15736559025856
O          -0.84088645338818    3.60522013348386   -0.16551734979355
H          -0.26921296368166    4.02568084890088   -0.79897123695836
H           2.09661634133835    1.17087259914347    0.62505659678860
O           2.62308599584315    0.35297534688958    0.83416633210643
H           3.51676073540687    0.65423825286972    1.00588283218178
O          -0.88888263017890   -1.11878256084747   -1.89421760561356
H          -1.00043616346334   -0.15018868854540   -1.87068701418412
O          -3.09329466133905   -2.25585562259801   -0.45662058080039
H          -2.49807600095112   -2.00742595001940   -1.17780329956514
H          -3.92844659238595   -2.49505851640661   -0.85945669029847
O           1.22151647788065   -1.39233666260297    2.33129563749269
H           1.80853921195568   -0.83087234354690    1.78221561895957
H           1.08102747839408   -0.90472666186501    3.14530062146678
O           1.66960581534882   -0.26718776769841   -1.74800738989655
H           0.05584668141116   -1.21716215329929   -2.10892377811842
H           1.10593366694610    0.52106170693645   -1.67889481186737
H           2.18885601362574   -0.27368506183164   -0.93326864626042
N          -0.96132456764139   -1.02977196150053    0.80622260438882
H          -1.00291556075004    0.01940039665407    0.95934368310169
H          -0.17236401630386   -1.38816790873443    1.39039309998992
H          -1.85267814836686   -1.47629570195129    1.02329132381516
H          -0.79378576929767   -1.18412751868009   -0.21747581047717
