    26
        -50.44620167  Gyration_radius:  2.53550786902 Dipole_moment: 5.807
 S           2.20752690715027   -0.65884247707558    0.97325141794980
O           2.17293508905854   -0.75092017523202   -0.46728586028869
O           3.15123254622936   -1.46783024266668    1.64720614951156
O           2.39813995255943    0.80891499659773    1.39876015626587
O           0.75065675680223   -0.94404249210333    1.48189512737238
H           0.35789543708546   -1.58687782781532    0.80270885087173
H           1.66460576617765    1.39581340788253    1.03627966337949
O          -1.56469100742721   -0.74332371503447   -1.88412037799254
H          -1.92103449317578   -0.86173051664108   -2.76500308176073
O           0.46014680035589    2.35279354959465    0.67486518446471
H           0.60929210723615    3.17639809021907    1.14392108387506
O          -2.89981446658456   -0.43065668697026    0.47082098001085
H          -2.49254155819612   -0.47787599207540   -0.41381203577970
H          -2.97634849807004   -1.33495803833202    0.78028600635348
O           0.04289034217589   -2.39278364472910   -0.47557463484609
H          -0.62009706497686   -1.89679241369432   -1.00263793821755
H           0.90326604771918   -2.15030979617757   -0.84944178231166
O          -1.21424688033598    0.95232243883455    2.05712565418653
H          -1.93628866398823    0.56902424142833    1.51503429129447
H          -0.60244283739796    0.22164969062050    2.21802966315322
H          -0.26842023514387    1.87668340494989    1.18044448571543
N           0.41953177518569    0.94920764401125   -1.94105733487600
H           0.75573548363335    1.36144998701507   -2.80200109821488
H           0.27392961836759    1.69840304892204   -1.27224472470831
H          -0.83967021892042   -0.03405591373239   -1.94712065413675
H           1.16781131451498    0.36833941222631   -1.56032917129395
