    26
        -50.45870568  Gyration_radius:  2.61745470461 Dipole_moment: 1.550
 S          -1.93341775933488    0.43489844897833   -0.93411110568971
O          -1.21988383439528   -0.76379857745058   -1.34973977739979
O          -1.90432624801368    0.61279887444725    0.50594813199024
O          -1.49542805748039    1.60899848212847   -1.66919525874547
O          -3.45569001161361    0.21938968107258   -1.32214368160785
H          -3.41829281862052    0.30026903297030   -2.26920396328884
H          -0.08877601856851    2.17603982032487   -1.18680836321639
O           0.86901927813712   -2.17268063578045   -0.38212579708825
H          -0.01630179400069   -1.98942931416112   -0.74802913251183
O           0.82758598760707    2.47530670762063   -0.94065049787745
H           0.97541180782184    3.28951550017082   -1.42450223792826
O           1.35438776737858    2.06233813272439    1.66747574260553
H           0.71976822295825    2.63494640790821    2.10269092167836
H           1.26398467998703    2.24468761824872    0.70832514999291
O           0.49937572353593   -3.03331301757429    2.32770387331871
H           0.71075196421402   -3.03936569713101    1.38358170724446
H           0.37105973443737   -3.94623466774319    2.58657199606113
O           1.36358948828901   -0.07872820038014   -2.01363377602180
H           1.47283022935175    0.82781015410523   -1.69780251935145
H           1.45319249916254   -1.68386916459477   -0.98886624342617
H           0.40324720478324   -0.22479723434765   -2.02709092274070
N           0.25999488780574   -0.38948740225710    1.55499201210444
H          -0.68352301269444   -0.04994752798654    1.20807927873437
H           0.84309075707996    0.46138647494535    1.72306615602272
H           0.16589642246693   -0.97783228141695    2.38321974095609
H           0.66245289970093   -0.99890160482912    0.80224858619445
