    26
        -50.44620167  Gyration_radius:  2.53528877534 Dipole_moment: 5.808
 S          -0.58347264796010   -2.28300955424256    0.83697143999765
O          -1.63986683459477   -1.31925612421166    1.03714682810173
O          -0.56608538848766   -3.40627956055605    1.69556883327141
O          -0.58228622336033   -2.76082749529423   -0.62710861239021
O           0.77099811030694   -1.49387817307100    0.90846944763939
H           0.59417520451586   -0.72867742411060    1.55055470621846
H          -0.46706497157483   -1.99121734785077   -1.26623630507501
O          -0.32796124785130    2.44035792625292    0.69634671392360
H          -0.75216008234550    3.28672706820034    0.84016140545782
O          -0.10021887953381   -0.87942524038384   -2.32730032424413
H           0.04816584887328   -1.32971786813278   -3.16145185193138
O          -0.06290310034203    0.37176498862978    2.41001192949799
H          -0.10637781704859    1.19760937710949    1.88123635874739
H          -0.92848320739181   -0.04986448680559    2.30132011702200
O           2.26685662575853    1.91626183054523    0.04903963156002
H           2.67149043220377    1.80984998649156    0.91179265303195
H           1.34296411498682    2.18217964474306    0.21116628067379
O           2.20582359570637   -0.44857588940125   -1.24505699240901
H           0.81276768046484   -0.63499211439945   -1.98088486431881
H           2.30818630843819    0.46696496375081   -0.90843081119627
H           2.03562595126572   -0.98904916586699   -0.46211304964379
N          -1.86763869735172    0.90036376043259   -0.73941359420004
H          -0.93498632252295    1.90116536674297    0.08494848018679
H          -1.97844318987320    0.10800067888786   -0.10523563784232
H          -2.79022919208113    1.18596699018039   -1.04178974124540
H          -1.36887605019404    0.54755787234548   -1.54971303083333
