    26
        -50.47229215  Gyration_radius:  2.48077892114 Dipole_moment: 2.003
 S          -2.22044479530630    0.49282450127765   -0.14113507918449
O          -1.21435578729561    0.94396170967737    0.81513043627969
O          -1.81305947324698    0.75034503626841   -1.50740580729374
O          -2.62300815274209   -0.87853849110064    0.10491839514943
O          -3.51499024348251    1.37140507843732    0.11245788661710
H          -3.93014986548470    0.89067913296117    0.82057025607780
H          -1.36074412218866   -1.80874030258662   -0.21699738038627
O          -0.55047702689402   -2.36790250838544   -0.33429367762920
H          -0.85100179213332   -3.18438037066794   -0.73645329440906
O           1.15267645909093    2.20287410119480    0.56937815346568
H           0.24898287289620    1.92501294970697    0.81430105112664
O           2.39506877178915   -0.15119604239241    1.30507312797895
H           1.53282234448037   -0.50157363938115    1.67248810485865
H           3.06508675609627   -0.33411567012276    1.96387443418831
O           1.75306258823134   -1.14923322830665   -1.17888498127777
H           2.15444880186972   -0.88089533965243   -0.33265761009995
H           0.95520685454411   -1.65665530703113   -0.93726197662288
O           0.06090546310746   -1.03527789563040    2.05324809060567
H           1.73261614303432    1.50651340747568    0.92699647282286
H          -0.49103643840876   -0.29486272784454    1.72515099144520
H          -0.12527701888584   -1.76414733783498    1.44544860621177
N           0.74093871668271    1.19928727194147   -1.81958820903405
H           1.19750649042022    0.24486226245821   -1.71773055467996
H           1.01250271448837    1.66378058341494   -2.67803201228670
H          -0.30748581126942    1.05606557642605   -1.77676925616458
H           1.00020554064158    1.75990722962599   -0.95182617774816
