    26
        -50.46838566  Gyration_radius:  2.46185734451 Dipole_moment: 4.940
 S           1.06141204346740    0.25118642848617   -1.87553780759174
O           1.98422930746126   -0.45386187334370   -1.00081177133967
O           1.30011922630694    1.66630542622675   -1.96789181198026
O           1.30631503355673   -0.33234825066934   -3.33725642777058
O          -0.32585476826442   -0.09792599335606   -1.57741415911723
H          -0.89788897639290   -1.34998040386754   -0.73428061853269
H           2.02959161169420    0.20850572007727   -3.63626249820589
O          -1.23232835475344   -2.07595382343926   -0.14906181423046
H          -1.77964531480338   -2.63480530229565   -0.70198616395302
O           0.37844042510686    0.29323299319314    2.64073515300752
H           0.66186449480937    1.03155411995128    2.06003827633340
O          -1.77958200415245    1.80594364727018   -0.46433004970047
H          -1.99885042426563    2.48501313084635   -1.10351821749688
H          -1.27726497122391    1.11697517968147   -0.95328688782356
O           0.75689967617511    2.02694928210072    0.64483408929949
H          -0.18264015488879    2.18562018660834    0.46098024412542
H           1.16756062729842    1.95565965992291   -0.23105991641633
O          -2.08030003093539   -0.04010700240715    1.64160629370228
H          -0.59268509803557    0.22333025046020    2.48835975255941
H          -2.16605272421952    0.70149022914328    1.02663581519000
H          -1.94522738414667   -0.82259221365403    1.08720485627386
N           1.13485867709294   -1.65893482805351    1.14785379845273
H           1.54633587549031   -1.17594048218895    0.29534419954168
H           0.26581728038457   -2.11556908368059    0.83702134143546
H           1.79188691962083   -2.32448815081246    1.53775743238681
H           0.87298899762946   -0.86925886620375    1.86432689184015
