    26
        -50.44890324  Gyration_radius:  2.42477491336 Dipole_moment: 8.960
 S          -1.94958512619235    0.35775884589178   -0.98133076121162
O          -1.21059338909392    0.58544229753765    0.26455456478891
O          -3.12491696234908    1.14489752476041   -1.12697147506925
O          -0.88183927593393    0.80929657469093   -2.12998278256176
O          -2.08792461764558   -1.07233397407312   -1.22737987933243
H          -1.15499626868818   -1.82157171319455   -0.28726948088346
H          -0.48597831677959    1.63585954749658   -1.75585654230479
O          -0.40226561151013   -2.33630403652235    0.15393046986850
H          -0.68996061386513   -3.25007271205107    0.18211589129082
O           2.32916922913777    0.64261481673812    0.16984011885990
H           3.24530386461310    0.69128283174321    0.44528220017802
O          -0.91199141584556    0.86998790234479    2.88099091380743
H          -1.69597388316033    0.57351313585111    3.34511438807633
H          -1.14165316975896    0.86583119249912    1.93054818834402
O           0.32013663532888    2.53119322205052   -0.59257043862733
H          -0.30052764694758    2.07510835541591    0.00660808260434
H           1.18248463720470    2.15178381857054   -0.37265462593862
O           1.07025066953212   -0.72077467905162    1.95978500767425
H           0.46504982639790   -0.12363460515250    2.44482099886488
H           0.48572962483750   -1.30048482511682    1.44733340164864
H           1.83432619573986    0.19229105934768    0.92879831178437
N           1.04218110114421   -0.91526434036869   -1.55735846941233
H           0.25244383983589   -0.29938048125590   -1.89859380972064
H           1.67999662314649   -0.30808340602071   -0.97644025084772
H           0.60239702270453   -1.62910518712349   -0.91882855985266
H           1.52873704826733   -1.34985117542783   -2.33448545208139
