    26
        -50.45231389  Gyration_radius:  2.52464005973 Dipole_moment: 7.574
 S           0.98909239778323    1.12773532123583   -2.00028543954011
O          -0.12895495871777    0.26337489576823   -2.42508314505743
O           1.15252455632697    2.30186748209627   -2.78721974120159
O           0.55588604747296    1.57828961577695   -0.50909067247353
O           2.19329456423487    0.34351573651155   -1.75711630365697
H           2.26949149979966   -0.66463072001602   -0.62225908841137
H          -0.41555190789337    1.65446807017949   -0.50596211210506
O          -1.18116395794347    0.37300047237950    2.44975288420153
H          -1.28183928291760    0.46008233485233    3.39802310551602
O           2.24513812421167   -1.39249368608048    0.08394648859260
H           3.10571077359887   -1.81151884259185    0.04420588146787
O          -2.24648498323924   -1.20272217821651    0.48119015629462
H          -1.90601065879695   -0.80962556452377    1.30465237851102
H          -2.57301537571118   -0.45457169607838   -0.03138414575618
O          -2.03728555833198    1.69329822734506    0.19787811565985
H          -1.78965029897441    1.37326437571632    1.08671417891267
H          -2.27923520390251    2.61635117587090    0.28409786300126
O           1.35497766286299    0.50088637080413    1.85673487347700
H          -0.19765482869700    0.38657274117521    2.27089641637035
H           1.73566366383932   -0.29990192326663    1.45754999511066
H           1.26057994890846    1.10786454760098    1.10331728007723
N          -0.16330191520005   -1.86391982890599   -1.06778033110282
H          -0.28263138672522   -2.69277303632026   -1.63871487487473
H          -0.13625148669485   -0.95655616149939   -1.71149314036698
H          -0.97618480216297   -1.73751856856869   -0.41545382494782
H           0.73285736687085   -1.89433916125709   -0.54711681769550
