    26
        -50.46415462  Gyration_radius:  2.51964296993 Dipole_moment: 6.944
 S           0.17989502864684    0.54404853699835   -0.11264741825694
O          -0.41047269941445    1.74987576053045   -0.64014961761261
O          -0.71557131995899   -0.16633151724784    0.80113983887819
O           0.53512000920916   -0.40946217575281   -1.27786909843437
O           1.46456961637376    0.79077710326524    0.56765051313768
O          -2.90965628813247    0.40015562562134   -0.59550593094751
H          -2.21455060976701    0.13198346313575    0.03490232760963
H          -2.76935551842598    1.34217213970936   -0.72878713435982
O           2.28088150712074   -1.77192843713023    0.40627744525364
H           2.07368551689849   -2.08443360567299   -0.47775375385095
H           2.11825755866550   -0.81027553095966    0.37169022121573
O           0.35773613845109   -2.09260533093839    2.22816883875142
H          -0.27288414658215   -1.57466406813714    1.67957071533372
H           1.09753094681326   -2.28727244252450    1.61112032671593
O          -0.89651124547899    2.07781464424788   -3.23145067799061
H          -0.72361780028261    2.08422610015275   -2.26610726064366
H          -0.08173494188071    2.35911627586074   -3.64964337621294
O          -1.53696462843277   -0.48298159747546   -2.70293321026395
H          -2.22697097618593   -0.30958150664114   -2.02139797663176
H          -1.42353854651088    0.37243543347277   -3.16486739735498
H          -0.29598258458823   -0.50231643076431   -1.88379330917732
N           1.28661964030776    0.14628389331664    3.05138288135345
H           2.18520354990516    0.14295293876334    3.52343261020704
H           0.90308725794534   -0.87668522705275    2.87753812457939
H           0.60652106850549    0.70278338190693    3.55888671283496
H           1.38870345679773    0.52391256331628    2.04114559586725
