    26
        -50.45724324  Gyration_radius:  2.49633784014 Dipole_moment: 7.209
 S           0.11184814159202    1.27998361475432   -2.04734533816784
O           1.41290750722260    0.62300826299100   -1.80114276587836
O           0.20021455442778    2.45559646523193   -2.83701734507976
O          -0.76119847417460    0.21168178114947   -2.82446738270578
O          -0.56996968413943    1.45105804515846   -0.75162336698343
H           0.58423041428131    1.60586256843741    0.31170171807024
H          -1.04825847440173   -0.45692579429199   -2.17692993323209
O          -1.55123258491425   -1.73015622380638   -1.06205294391981
H          -2.33108671492042   -2.14761453861652   -1.42987658849901
O           1.28731292186213    1.65908501371839    1.01596769612101
H           2.03040904880808    2.08600407349291    0.58710533349878
O          -0.58926472639326    0.62641378119348    2.84030627345996
H           0.00217767551930    1.18465455508372    2.31041049745143
H          -1.03181303755646    1.20793491024877    3.46022032671918
O           1.61188871584609   -0.88963455598465    1.82051794943859
H           0.86308290135938   -0.91312258012147    2.42596953964537
H           1.68405936639285    0.05571955895264    1.56227473798586
O          -2.24358709997407    0.03064981738172    0.68467649328334
H          -1.87524000168041   -1.12280460010957   -0.32726855598732
H          -1.77233709248619    0.05634026929353    1.53420481496887
H          -1.78948461043391    0.70964692038888    0.14030695708255
N           1.15623442819860   -1.63046541851818   -0.68570024438679
H           0.17610609985765   -1.91145461580025   -0.82395006202049
H           1.79163251665559   -2.31933186484110   -1.07196602003978
H           1.30158670707481   -0.65170931418176   -1.19434358052095
H           1.34978152198686   -1.47042012119279    0.34002179968632
