    26
        -50.45724323  Gyration_radius:  2.49634458214 Dipole_moment: 7.210
 S           0.18466192419366    2.40000924432347    0.21933976081158
O           1.41666100715741    1.75921549545964    0.72578859499489
O          -0.07860042885556    3.67295985627455    0.78830824040634
O           0.40956397383080    2.57752337896029   -1.33798735341420
O          -0.91878896448435    1.42891139905212    0.33096468908178
H          -0.55163305223758    0.51731865438061    1.56419539656426
H           0.30601454292346    1.70063442668934   -1.74925424927496
O          -0.32789671992269   -0.10764389023763    2.30755205438418
H           0.16173034924682    0.42557752591290    2.93552730130548
O           0.18640381274207    0.12923320735650   -2.54494175008318
H          -0.02862029792356    0.28493265763823   -3.46541034252515
O          -1.87753649446041   -2.06424077414625    1.00928649577814
H          -2.76176387844577   -2.26500035260898    1.31938162380509
H          -1.53238028441456   -1.36623496768151    1.58885852928477
O           0.98064064915698   -2.12805958707332    1.10144934277894
H           0.19933195232147   -2.60423026537754    0.80033525948809
H           0.62395398099608   -1.42659916506550    1.68990877842441
O          -1.95822406549868   -0.40930272488743   -1.22541933383403
H          -1.94877892930333   -1.15599990676807   -0.60349473789007
H          -1.77495681822648    0.37255630665616   -0.66090878484978
H          -0.66825138919051   -0.16351987333658   -2.10032396217860
N           2.01024673803053   -0.33433565160943   -0.55987064783281
H           1.48299734204886   -0.29085888187701   -1.44238151393907
H           1.67145259730924   -1.14255371498457    0.02935040068210
H           3.00663200873916   -0.40353746014504   -0.73277580717515
H           1.78714042434357    0.59324508298983    0.01252200522987
