    26
        -50.45499973  Gyration_radius:  2.40437527093 Dipole_moment: 8.858
 S          -1.79064124770772    0.47301303554471   -1.17926593503010
O          -1.91670520124069    1.58883884517366   -0.24754351299678
O          -2.49706411030671    0.57304865131364   -2.40934283558756
O          -0.21514035374913    0.44990837062218   -1.54918197564879
O          -1.98376510897882   -0.81508116484593   -0.48602453236765
H          -0.98191815900588   -1.84724964232832   -1.10428278207345
H           0.14680338310834    1.04563989331600   -0.87380524663389
O          -0.19252193767353   -2.32382927462784   -1.49126679389564
H          -0.13685817480202   -1.99362775984462   -2.39094942686977
O           0.43928740702082   -0.12919074609317    2.26272252543104
H           0.61531019021269   -0.34619163884534    3.17886629508850
O           0.52355979081892    2.03197272263242    0.51396016821611
H          -0.44338962350318    2.13171139891004    0.34303601900642
H           0.58484941096648    1.45751088278960    1.29359528832274
O           2.60913344466775    0.99515550843000   -0.95028498256091
H           2.10017137045545    1.61849952347843   -0.40254276803469
H           2.29370878701691    1.11719431951732   -1.84947556904355
O          -2.10051791214589    0.02068261660762    1.94364761523818
H          -2.30186976537592    0.91956467645517    1.65003580211641
H          -2.17218086082509   -0.48162176902627    1.09537293993740
H          -0.57173380617157   -0.10165251130072    2.17633712731189
N           1.61108400631469   -1.28659472777492    0.10124226326225
H           2.06543280589967   -0.45848094506062   -0.36051536163548
H           1.12487161321705   -0.94123474389734    0.96009150451933
H           0.88332481123920   -1.71480873030837   -0.57281412459809
H           2.30676926054873   -1.98317679083535    0.34838827852950
