    26
        -50.45856484  Gyration_radius:  2.45609548289 Dipole_moment: 8.120
 S          -1.24295856879606    0.70189533662079   -1.61750212998122
O          -1.46733743947125    0.83582362096462   -0.15031540094358
O          -2.10618706920133    1.52579526576475   -2.38403391313031
O           0.19248145514490    0.85556617495528   -1.87662453174907
O          -1.57728101644035   -0.80768576250622   -1.93291303704342
H          -0.87265197144857   -1.35693744147502   -1.54051639229889
H           0.63621243163141    1.99317670117340   -0.76894779115706
O           0.35224691319367   -2.37634380372119   -0.82567386878497
H           0.44076842104058   -3.16403001026024   -1.36344579441720
O           0.76990992411658    2.47426856427705    0.08125469495956
H          -0.11870592547391    2.54090289053967    0.44347319553161
O          -2.65102696154269   -0.17791524374183    2.12614608320898
H          -2.48443589240747    0.29739573251759    1.29488536993095
H          -3.59184052645522   -0.10982543044108    2.29078406099052
O           2.20462526633671    0.67428774461453    1.30956411720000
H           2.89824106301497    1.07540345245892    1.83379126922582
H           1.71620894781312    1.42682060908627    0.86545315343890
O           2.23832841959410   -0.66044853250678   -1.18882461205910
H           1.16089153792303   -1.80573284454660   -1.01160486383947
H           1.60873211608610   -0.03668646067071   -1.61146027495240
H           2.46830560022652   -0.24810563906357   -0.34251276868594
N          -0.09374681818714   -0.75477749851586    1.30102887665178
H          -0.61797148835507   -0.05441775762702    0.64278711005060
H           0.81974272254534   -0.33915535781626    1.55343816107733
H          -0.71631244686538   -0.88275043199839    2.09983237401979
H           0.03376131597704   -1.62652389807914    0.77193692275642
