    26
        -50.45416128  Gyration_radius:  2.54791277973 Dipole_moment: 6.623
 S          -2.08868969854985   -1.21637062856688   -0.50905816063365
O          -3.14746894671162   -0.30370294817813   -0.16375198752027
O          -2.39058648344413   -2.26766182479928   -1.43242875109182
O          -1.00412248489683   -0.29127746461763   -1.32643963567466
O          -1.32620196208986   -1.66254936563832    0.65979290444736
H          -0.52815290477233   -0.86544612075343    1.76104183686629
H          -1.44615266453369   -0.24740439711179   -2.16789727120469
O           0.09652118580208   -0.34756802929889    2.33696470136357
H           0.20898119399447   -0.86288923024075    3.13677158384670
O           0.31338823749258    2.13083697406127   -0.72189049001154
H          -0.12415107323504    2.20360151831500   -1.57075359971619
O           3.09826631120194    1.98460497008408   -0.20651399611497
H           3.61693195453080    2.75403865115445    0.02938880763191
H           2.19710557260800    2.29710868990508   -0.37902602945202
O           0.59049670038315   -2.60444261882843   -0.82940860977113
H          -0.16541057967985   -2.42633216244764   -0.22704747953143
H           0.17538548901312   -2.84536790977668   -1.66022863760500
O          -1.60614864026027    1.55016377249232    0.95860502847994
H          -1.17700306050354    1.08348690019486    1.68508555473762
H          -0.42387186952055    2.01361208333714   -0.05907473755794
H          -2.24738796134937    0.91840104037105    0.56566326583434
N           1.50053748575943   -0.21392864835179    0.01890565004601
H           1.30849505349454   -1.13749864296149   -0.43732921875551
H           1.16995151438513   -0.26076505230892    1.00659941356556
H           2.47554124721473    0.08849189596968   -0.02792059745025
H           0.92374637365264    0.52885854799426   -0.44004955470883
