    26
        -50.46109573  Gyration_radius:  2.57372465694 Dipole_moment: 2.872
 S           1.10752392226136   -1.88555046221282    0.07751906730524
O           0.23507570877389   -2.23777778317685    1.19188349404425
O           0.37317550053167   -1.46177829486538   -1.09791539134910
O           2.12504962307758   -0.93251541013957    0.48307955580074
O           1.86600611346407   -3.21250564028309   -0.33886291647260
H           2.33365132500700   -3.44609151353545    0.45677440484940
H           1.70456964250069    0.52240392744794    0.98991685402435
O          -1.58158226953387    0.40068982705022   -0.99763516390709
H          -1.04609361967665   -0.37174105942500   -1.25482894875310
O           1.35938007840535    1.38269511957571    1.35103213104228
H           2.11226504215437    1.81629044128602    1.75507690607447
O           1.77228511963864    0.32686722647778   -2.50047005607371
H           1.37170442697810   -0.38153336741382   -1.95702342703621
H           1.60740342179845    0.08731686753780   -3.41388446079083
O          -3.64702511493443    0.65697819469872    0.99880642132852
H          -4.57420857363293    0.84351352788366    0.84874915996135
H          -3.23018048708555    0.61678316769861    0.12706148189184
O           0.33699590931799    2.18712691686377   -1.14324933705296
H          -0.98568399813253    1.18027348744725   -1.16332582942701
H           0.71727754556321    2.09689270623507   -0.25578543784913
H           0.93816823359799    1.68142377932013   -1.72475814941849
N          -0.98460394703129    0.03093373615712    1.54922359132375
H          -1.80774365060101    0.12022870470986    2.14167074337978
H          -0.57400720899753   -0.94688236972413    1.54434574253992
H          -1.29130453552513    0.22536218587009    0.54398667805867
H          -0.23809822794037    0.70059608454870    1.78861287664849
