    26
        -50.45212378  Gyration_radius:  2.50347719029 Dipole_moment: 8.231
 S           1.35374133467861    1.59614847781342   -0.78719546356704
O           1.84969323413366    0.41207623481647   -0.04951582288987
O           2.34620993789676    2.23973590070046   -1.57653312179286
O           0.23368104856054    0.96852058102780   -1.75810023050534
O           0.58080828140276    2.45862452133209    0.09605224694699
H          -0.61971893903888    1.98309019724398    0.89977622520813
H           0.55299684371349    0.07005281996469   -1.98036483784603
O          -1.38692180786288    1.60020091919907    1.44021364722283
H          -1.59012243044833    2.26613283756643    2.09776776871154
O          -1.67847311157121   -1.94566976186098   -0.55745324836453
H          -2.44050586848980   -2.52176435158136   -0.62327896510903
O           0.50249369602096   -1.63061346285694   -2.22620729473342
H          -0.24950120012172   -1.89061842143866   -1.66393266827216
H           0.26211937921990   -1.83257965271877   -3.13208885711043
O           2.48860547115805   -0.70825819483352    2.40134201018762
H           3.39900577707984   -0.79642284829126    2.68441568394189
H           2.51385448428718   -0.23802821067275    1.55080052435647
O          -2.32710723387710    0.54611911037934   -0.91484196161958
H          -2.00911463137723   -1.01369198704393   -0.72908293481183
H          -2.27314821519958    0.99163477199213   -0.05305251750434
H          -1.53646831999972    0.85421062371742   -1.39275630731284
N          -0.02042816164420   -0.70846060455334    1.27139866800441
H          -0.62943257205892    0.07724230787078    1.57378038880332
H           0.50095730613460   -1.10630775831395    2.05332875422129
H          -0.56508697626974   -1.40770249994582    0.74930325784703
H           0.74186267365657   -0.26367154938416    0.62622508596758
