    26
        -50.44745138  Gyration_radius:  2.44163538043 Dipole_moment: 4.426
 S          -0.87527640424232   -1.59946044090155   -1.04665474111224
O           0.51771480499412   -1.22412739151410   -1.01119525795526
O          -1.17571863656168   -2.85779934426023   -1.62033630172572
O          -1.42651067579044   -1.50149268362040    0.40923728585795
O          -1.67688743852053   -0.48851965817685   -1.76151201279867
H          -1.92771394796003    0.20624449650629   -1.06374709324198
H          -0.67687973983110   -1.37137435747454    1.06259310219209
O           0.44483538206249   -1.15593725684690    2.15271586470395
H           0.48090594384553   -1.90328065472757    2.75171920514808
O          -2.30351380183056    1.25126940254121   -0.01185199173739
H          -3.00202093824003    0.87412307959125    0.52604345506616
O           1.31676201680483    1.33684328204238   -0.66404602652851
H           0.79521665072869    1.85210045287695   -1.30504831450754
H           1.11093883793398    0.40551020207008   -0.86491358555020
O          -0.72550086899658    2.24392309311258   -2.26811777700220
H          -1.39349021854728    2.42071436341323   -1.59738318926500
H          -0.98785569299418    1.42099268897586   -2.69187068835427
O          -0.21739163607110    1.48951443788761    1.48598083523252
H           0.46403878253866    1.55076258748315    0.77117087527828
H          -1.51890602465051    1.39231984177445    0.60908751531915
H          -0.03236160740691    0.66410849508936    1.95118137556724
N           2.69437593406325   -1.00914976527767    0.83480082826806
H           3.55703714760057   -1.50372345210957    1.02198798310127
H           1.34584236441517   -1.10676960716703    1.68117504866801
H           2.91247469536855   -0.03062064096068    0.68445385309224
H           2.29988507128682   -1.35617118032593   -0.03547024771309
