    26
        -50.45840236  Gyration_radius:  2.43858865139 Dipole_moment: 7.424
 S           1.61079079163338   -0.86231548651240    0.88178122063910
O           1.00171381343934   -1.20179846522534    2.18111597746488
O           2.97895567390244   -1.22466203333752    0.73872294264733
O           0.74010666856691   -1.36939784857869   -0.19394560268622
O           1.55413452334083    0.71125089699649    0.78021948948478
H           0.64908420773409    1.05556861071929    0.92915949689900
H          -0.78171984150439   -1.52048756281058   -0.41120711582063
O          -0.90073359702424    1.75685104452755    1.14232252023722
H          -0.75456850829679    2.70194346175813    1.20020857613685
O          -1.78135643313021   -1.56926001101376   -0.45393871174952
H          -1.98511027593174   -2.40127291574546   -0.88282009005203
O           0.68225483063462    1.66593300374991   -2.38718119921367
H           1.38753196799267    1.03120023429541   -2.12499346919210
H           0.75324924440531    1.75261271917214   -3.33879592662402
O           2.47089388784371   -0.25567790600421   -1.85553888153171
H           3.19904033328276   -0.19115036609321   -1.23009527414982
H           1.82757643282970   -0.81691810397667   -1.38750502705014
O          -1.66863625457399    1.14794834532171   -1.22415646281123
H          -0.83405056126861    1.32828283228091   -1.71463441907948
H          -1.76792655726305    0.18595485886624   -1.17953047840459
H          -1.24983708582305    1.58315376156377    0.20658990474157
N          -1.46508397054375   -0.70642503406969    2.08310861412242
H          -1.47423471031943    0.31905523070851    1.97156627295393
H          -0.37893767067721   -0.98344666213990    2.17632693847163
H          -1.99828475382626   -1.00392567345067    2.89197069517951
H          -1.81485215543112   -1.13301692100974    1.20124998937194
