    26
        -50.44745137  Gyration_radius:  2.44164049962 Dipole_moment: 4.427
 S          -1.46430646356817   -0.72884828991585   -1.32060315653295
O          -0.31973288222859    0.09174327463455   -1.63553896579571
O          -2.15766472534969   -1.29310761666627   -2.41771989528390
O          -0.99177093198819   -1.83509600229110   -0.32757370332647
O          -2.44013319688275    0.08586716152702   -0.44199327666814
H          -2.14855104818672   -0.02600043973180    0.52493082906662
H           0.00869358283812   -1.84449205205527   -0.25953679820210
O          -1.70702114119084   -0.19509089145966    1.97968108009050
H          -1.95473287812642   -1.08098865571173    2.25032898171919
O           1.57697396779839   -1.91690896396320   -0.09013799921291
H           1.91147064530758   -2.75898400356037   -0.40261993215243
O          -1.77702574395361    2.56026197910391    0.99615463822599
H          -2.31229098772533    2.19360568806982    0.28577256644150
H          -1.87241303401211    1.95465159150025    1.73874855386377
O           0.73515994637465    1.84614129153597    0.13261815529809
H          -0.02506373315785    2.35670903015634    0.46391420481901
H           0.37213413228183    1.29255538615471   -0.58283188490152
O           0.86960008886893   -0.09498696033999    1.92518591487381
H           1.23176050082975   -0.83664120271069    1.42446181918485
H           0.96849418279402    0.69586232585090    1.33880787627621
H          -0.69812378013639   -0.16146667898868    2.02524435312460
N           2.54043049373498   -0.00684383443783   -1.58762303421517
H           2.70162295670709    0.80592450472693   -1.00356080242099
H           3.28961307115450   -0.06723813650759   -2.26506204711581
H           1.99671112573978   -1.19406279281947   -0.67136630251494
H           1.66616584207925    0.15743430789845   -2.07968118464186
