    26
        -50.45745693  Gyration_radius:  2.39270238455 Dipole_moment: 7.910
 S          -1.88043635559072   -0.07869856633581   -0.35340857713227
O          -0.78877311192265   -0.40667451278886    0.57500711872586
O          -2.85625349546997    0.79377110480273    0.22236974921575
O          -1.11895840984308    0.73910768703011   -1.52736808898578
O          -2.35902740702134   -1.26495309217138   -1.02879042071386
H          -1.26685302158377   -2.39354506263275   -0.81213859495723
H          -0.65526563162875    1.51088137855174   -1.08305046502143
O          -0.48750690583725   -3.01531562167280   -0.87999778628713
H          -0.76383112418652   -3.70630113621954   -1.48527199719276
O           2.40284077422227    0.47052713366296    0.18550206165663
H           3.34870538924697    0.44339957830174    0.33572754452233
O          -0.97512168661316    1.79587124350152    2.00693210429481
H          -1.87471376155611    2.13045387248698    1.96222016468246
H          -1.03070304000603    0.93351902224213    1.53918612373959
O           0.34920987475789    2.42846534812705   -0.23515353372577
H          -0.09039314882937    2.40850234080505    0.64373054557572
H           1.16227117509275    1.91347070477034   -0.12996242084774
O           1.16425895159385   -0.22924375629183    2.36125231418548
H           0.78526685489531    0.54182886080763    2.79741366978029
H           0.42628359450880   -0.59532614421134    1.83957586106739
H           1.97381771301011    0.21356054476326    1.05544388517733
N           0.93299578492614   -0.93564590212134   -1.61384526890980
H           0.10954626577435   -0.28326328747482   -1.71345238033738
H           1.56194952812804   -0.50668686479338   -0.89555402630168
H           0.51440208355949   -1.85317763005138   -1.26742270918619
H           1.41628913036406   -1.05452723308719   -2.49894487301162
