    26
        -50.45448817  Gyration_radius:  2.49098067025 Dipole_moment: 2.169
 S          -0.07027663246590    0.72001119996092    0.58650819054952
O          -0.75942751905841    1.54377205176310   -0.40286633458891
O          -0.86037580668576   -0.47445934435929    0.89958924246974
O           1.26769480894738    0.34738094497657    0.12088967970647
O           0.06074551570861    1.58021891622975    1.85062110634172
O          -2.58184827377261   -0.37271124602335   -0.99012783132787
H          -2.69422497978824    0.58351040745606   -0.93452890025310
H          -1.98555535660265   -0.56365570523191   -0.21054418542089
O           1.30465150831439   -1.82661973105058    1.75125968116997
H           0.36838342557714   -1.71842756857251    1.51902806548327
H           1.73915613181217   -1.19300701403323    1.16279447986483
O           1.08268183520628   -1.39189973295393   -1.75120938982519
H           1.88735779722379   -1.29743215649443   -2.26514836254522
H           1.15841468375916   -0.73445869212114   -0.99799362043339
O          -0.14070641608864    1.76104443797354   -2.86850509656300
H          -0.62737259079452    2.51987148290842   -3.19468623247704
H          -0.24811039705565    1.76843895608262   -1.87349628557023
O          -1.00419105644163   -0.61824694888279   -2.91955083267463
H          -0.16424985259131   -1.05589460902260   -2.48619892024554
H          -1.73232336836615   -0.58693018491919   -2.14208553466098
H          -0.70348136535756    0.35727628670923   -3.05085291017879
N           0.97533215950279    0.09590562599822    3.73313075324679
H           1.80705585163697    0.44201473665283    4.19163296186204
H           1.20733596326665   -0.75770031086472    3.21196194858946
H           0.28322606867251   -0.12715244863999    4.43522347855238
H           0.43010787544041    0.99915064646078    2.62515486893420
