    26
        -50.45840237  Gyration_radius:  2.43860272693 Dipole_moment: 7.428
 S          -0.63361788842496    1.08759742541024   -1.59075942339725
O          -1.91149829881455    1.57271497156915   -1.03751593512206
O          -0.34341791800393    1.51527322270488   -2.91606582605753
O           0.43862065893810    1.37211761836619   -0.62024536011984
O          -0.76103551983398   -0.48402777770791   -1.64823324953055
H          -1.02180614385491   -0.86211447191096   -0.78281998076553
H           0.56588520858746    1.38829880328656    0.91895292743651
O          -1.44200207350826   -1.62604023810892    0.69319560147757
H          -1.62344999133985   -2.54056027360018    0.47252927886371
O           0.54421937388551    1.36321344164578    1.92015484488455
H           1.07372592743247    2.10605347110923    2.21260869672769
O           2.04366644401188    0.14457002278274   -2.32703273249770
H           1.46839235734977    0.22209069290016   -3.09422743495995
H           1.61608035752565    0.72388198007589   -1.67174607377381
O           2.17046113033771   -1.94920621053010   -0.66135761043938
H           3.10315464889440   -2.16777835043714   -0.68001477032184
H           2.05106774212881   -1.23772805080533   -1.33111717980638
O           0.92680070014623   -1.42366016848840    1.64620226163868
H          -0.51803132700486   -1.61533634856708    1.11009995774647
H           1.44506594300107   -1.61810512593160    0.83179151685975
H           1.01194822969805   -0.47426993163414    1.81566104566051
N          -2.06092773598918    0.90550535297334    1.38587968127768
H          -2.03618066009793    1.26486135261700    0.32031881966170
H          -1.15477154624066    1.17394383254948    1.82018825383357
H          -2.85536423989618    1.28226681301314    1.88991235598215
H          -2.09698536893543   -0.12356207327852    1.32364032474665
