    26
        -50.43987376  Gyration_radius:  2.61943878461 Dipole_moment: 8.071
 S           2.16105671413372   -0.25677757434610   -0.98207427760355
O           2.06724812268845    0.46093311923159    0.25400679678937
O           3.40969239554023   -0.80220245433569   -1.36314896399307
O           1.06934700919395   -1.38906645181266   -0.96130779198201
O           1.63581215651157    0.64474844804210   -2.13700857024394
H           0.76703009411067    1.00482462910259   -1.83450095923392
H           0.66021220001986   -1.44523412885914   -0.04175333709874
O          -0.15316600158538   -1.56753498639004    1.28947944158563
H          -0.69315684614040   -2.35953670869482    1.30113971817007
O          -0.83793322868014    1.29622957952627   -1.54348755462379
H          -1.17241048880573    2.04534719223007   -2.04014101540622
O           1.38597546241678    0.25110012426634    2.86273647084164
H           1.82131798816716    0.49142074471394    2.02856661100556
H           0.94342373349593   -0.58102647256213    2.65588243692015
O          -0.67978662640786    1.93248352558541    2.93379395361021
H          -1.00306210319654    1.94565504808771    3.83537147412113
H           0.16059276602281    1.41155204694801    2.95086383449440
O          -1.71671619427602    0.44979812522941    0.97563429590286
H          -0.79149994280526   -0.78520889804406    1.19423542407245
H          -1.44367578807020    1.06176245796606    1.69734784367750
H          -1.40584529227930    0.86592265084303    0.15717157903750
N          -1.29625153321213   -1.02936811228291   -2.72043785208091
H          -0.47056599476123   -1.44854764594246   -2.29923496865173
H          -1.13765900582126    0.46185193572004   -2.01303429220169
H          -1.18143035715280   -1.06391375601450   -3.72543573441029
H          -2.09854925910608   -1.59521242820269   -2.47466456269750
