    26
        -50.44443894  Gyration_radius:  2.60264705178 Dipole_moment: 5.530
 S          -2.35023078445367   -0.65693331954000   -0.76075655849054
O          -3.00755873792958   -1.29238003310053    0.34886720342381
O          -2.60594761500137    0.78888239026442   -0.82760496690311
O          -0.92668732834619   -0.93659228510479   -0.84808505399372
O          -2.99278471409157   -1.25965206516451   -2.08497606505078
H          -3.92187822714463   -1.23662700960125   -1.87879775079478
H          -0.67999614342514   -1.49051357361132    0.71679990094034
O          -0.63697883067642   -1.61534453512941    1.68682162122412
H          -1.56477195159345   -1.71476064855715    1.92634438869137
O           2.61278903712830    0.59991488119143    0.48025695654559
H           3.53078600490957    0.51846534875181    0.74012416394421
O          -0.82586798278607    2.14614087993708    0.18171115133834
H          -1.61699852571509    1.57162501336147   -0.26235542706845
H          -0.07418605843680    2.20789450551996   -0.48722907193704
O           1.35894110297880    2.28087677832659   -1.21217257062621
H           1.88818556316872    1.66600845528613   -0.66054120137267
H           1.77243015643753    3.14356625161604   -1.14717313242360
O           0.31762078563458    0.82759903310512    1.98157269532452
H          -0.42144905828446    1.60035839523764    0.99354331470312
H          -0.04509055323705   -0.09457167977529    1.99761959744781
H           1.20789615407111    0.75144947780682    1.59183620100062
N           1.80974386002124   -1.66209492971859   -0.54399270084606
H           0.88153073895035   -1.38678828580528   -0.86483744268630
H           2.34104351158933   -0.29156166617062    0.07460730961009
H           1.66746565764036   -2.35770061612208    0.17914689783828
H           2.28199390862218   -2.10726075298926   -1.32072944983716
