    26
        -50.45448747  Gyration_radius:  2.49098657394 Dipole_moment: 2.152
 S          -0.16051124029721   -0.50976750069052    0.76125994212726
O           0.28591281346115   -1.74141002560338    0.11613466117498
O          -1.33012783206994    0.03830424872381    0.06831333524599
O          -0.55852352940378   -0.89163640804907    2.19336310980509
O           0.91977776526683    0.47852907677189    0.81289401346210
O          -1.28459277083485   -1.38101755873672   -2.05945228394912
H          -1.04828713217444   -2.19357203629882   -1.59658385915467
H          -1.43649866376260   -0.74253434297073   -1.30509898239901
O           1.33773547738789    1.42395334286512   -1.53239204655214
H           1.15530234188703    1.07813313385963   -0.60942407920639
H           2.24637521379873    1.73203877674518   -1.52333130423813
O          -0.86019366117583    2.51875402904515    1.00624803273664
H           0.03291007574446    2.14871848577769    1.05790143334915
H          -1.32771698633154    1.85857147462711    0.47024159219640
O           2.34506246304941   -1.98982999291532   -1.36996288238734
H           2.49294999220217   -2.93305458423785   -1.45668085981629
H           1.64587698299068   -1.88215874700690   -0.66203002541298
O           0.92586673280805   -0.61136026426089   -2.94936916243178
H           1.56760533855171   -1.23443339131972   -2.44036611865615
H          -0.05336216467849   -0.92165866003289   -2.66474728204477
H           1.07006673803632    0.30118641750035   -2.46916855468540
N          -1.64068393982919    1.15497008665167    3.29991224503911
H          -1.22564897498974    1.44086228830022    4.17619227600267
H          -1.46179126278355    1.87542367237408    2.59060406929349
H          -0.99840071150615   -0.07719399860378    2.65941029523187
H          -2.63910304533012    1.06018247746805    3.42613241526890
