    26
        -50.45840237  Gyration_radius:  2.43859586382 Dipole_moment: 7.425
 S          -1.66092768588256   -1.00075623731832   -0.59576044304775
O          -1.15092860309959   -1.54781767021853   -1.86662389802498
O          -3.00732260338866   -1.33898124266860   -0.28522483699118
O          -0.69969071513261   -1.32074959065664    0.47477868690749
O          -1.62239368310005    0.56818359908672   -0.75863207571027
H          -0.73769534536070    0.88607703555121   -1.03447906286389
H           0.83677200384886   -1.42940304618964    0.59048266019517
O           0.77891624973770    1.54723339231137   -1.48390666801664
H           0.61337789780649    2.46940113465927   -1.68421546020519
O           1.83731933517077   -1.46742473923651    0.56000329825544
H           2.08781129112331   -2.21652115586707    1.10205183197592
O          -2.31198216490940    0.04554656891399    2.06554937704699
H          -1.69829272836344   -0.58293690363425    1.64564914355323
H          -3.08813198158352    0.00349484794347    1.49865140545867
O          -0.51927347130153    2.03467805829159    2.12890895918936
H          -1.23242079162760    1.36304435947480    2.03216225384793
H          -0.51648456518217    2.27708538065717    3.05592942227619
O           1.74053179829571    1.33935110091372    0.88095093782056
H           1.85197532407123    0.38351187748402    0.98685574261661
H           1.20336552730191    1.53129053998940   -0.56343493638864
H           0.94435425047382    1.59523837253325    1.40081921191851
N           1.30753383899377   -1.03559605253981   -2.05040784463695
H           0.22211375364842   -1.32756977859344   -2.00903047106080
H           1.30869779637460   -0.00573175255928   -2.10951224563542
H           1.73284480966303   -1.31002039635288   -1.14168875766734
H           1.77993047243148   -1.46062772196793   -2.83987624080582
