    26
        -50.44443884  Gyration_radius:  2.60254970563 Dipole_moment: 5.527
 S          -1.47136243389006   -0.69025466142461   -1.97292008354414
O          -2.37426672380168   -1.70913406055182   -1.51063656860126
O          -2.03520966094209    0.66359144392750   -1.87537504581424
O          -0.15095671147167   -0.74704729610350   -1.36824872118185
O          -1.24796647503038   -0.94225027107159   -3.52743815260451
H          -2.13663655559629   -1.10306529313531   -3.82879543965176
H          -0.51997091992344   -1.70899768194520   -0.04359165564536
O          -0.89844826055672   -2.11291392709530    0.76386237934719
H          -1.76950653246683   -2.39769430395769    0.46683482448027
O           1.83867423996210    0.75378764866973    1.86279332081324
H           2.51826025215954    0.71460039813601    2.53621883760351
O          -1.34246248334723    1.87042614393216    0.14782878838390
H          -1.65982226002165    1.36000828529661   -0.74199586097638
H          -0.41224135791964    2.22419518449355   -0.01249500906168
O           1.11947586548631    2.69142237856342    0.13317489218033
H           1.47343008745760    2.01183564395215    0.74571049475642
H           1.21703760810169    3.54023723492186    0.56835981944367
O          -0.86040837721839    0.22890495718211    1.98036070267539
H          -0.93576862361411   -0.69375275023242    1.62630807845924
H           0.09430804536240    0.38644713784507    2.09815401259461
H          -1.23212060815613    1.16233947150358    0.92682186488621
N           2.21732553193827   -1.17974851648675    0.15140575674561
H           1.50718586338130   -0.93989627762096   -0.54032147679090
H           2.02684525524299   -0.00203235039159    1.20974146339685
H           1.94247610954129   -2.07208784579125    0.54540375693377
H           3.09212915520569   -1.30892070263214   -0.34116095881809
