    26
        -50.45147873  Gyration_radius:  2.46507798531 Dipole_moment: 6.099
 S          -1.25883381780560   -0.42125590537544   -1.99737487099487
O          -1.44480693126660    0.53943266469361   -0.92999417609965
O          -1.75408763303241   -0.04218541851554   -3.26813199665178
O           0.25657087195411   -0.77074971901822   -2.06163303065368
O          -1.84420702499027   -1.77365784154892   -1.56236252593542
H          -1.32160749804632   -2.01899814103813   -0.74060067406364
H           0.84378988235322    0.03064642327372   -1.89439021134205
O          -0.39646328875503   -2.34014158464926    0.48822435444307
H          -0.04772406278506   -3.22038979164752    0.33710298417898
O           0.21144120932675    1.26302525204355    2.43703243961002
H          -0.01389264089280    1.77949175552307    3.21172771098162
O           0.15167253101774    2.50747119544091    0.00083560345575
H          -0.60783895168132    2.00670152107643   -0.34263090320338
H           0.26813752245698    2.18391718104270    0.91581535836459
O           1.76990995862648    1.23722787426126   -1.55435185939098
H           1.91027276394845    1.76905307102016   -2.33976049319153
H           1.21732317544531    1.80192138318243   -0.92692451993519
O          -1.83723912989207   -0.19940947106453    1.62937508547179
H          -1.85956490527029    0.12910986479532    0.71110948221532
H          -1.54473034785776   -1.11527322933395    1.55696947522712
H          -0.59191689286206    0.72092085639472    2.22097176964190
N           1.67173653141324   -0.77052863521206    0.83422709279513
H           1.96662023651740   -0.31085432893747   -0.01951349840239
H           0.41244802663076   -1.72084967469645    0.57340357235223
H           2.48261135745903   -1.21738621750805    1.24360730807506
H           1.36037907804443   -0.04723911431977    1.47726653293790
