    26
        -50.46631273  Gyration_radius:  2.3974097147 Dipole_moment: 8.093
 S          -1.57069859647885   -0.84475386116281    0.72696352689402
O          -1.40882584014685   -0.59041953951919   -0.72567787962349
O          -1.95009974452911   -2.19833152287125    0.99359390297475
O          -0.30130257381343   -0.49372143521237    1.40020284905927
O          -2.64503951957053    0.13341223087561    1.23672299644275
H          -2.29209853914089    1.05131188747732    1.03892823181509
H           0.50548624329088   -1.99241238224216    1.39799622803867
O           0.72392997182703   -2.86181606319590    0.99906138257099
H          -0.13877179295410   -3.29793636295152    0.99840146039074
O           2.05129335548827    0.89678028101556   -1.11218780687558
H           2.86548610276025    1.36450101613559   -1.30186381495658
O          -1.53683208861665    2.40510972918547    0.65194107641454
H          -1.36901670473854    2.35973610357613   -0.31415633458638
H          -0.65675140433537    2.40284424414704    1.05323171280187
O          -0.68715417907180    1.73960858531921   -1.81902335174735
H          -1.08247180165377    0.88208199358770   -1.57244407177248
H           0.26685547883726    1.60564641291208   -1.76964456240423
O           1.11146249169870    1.61796478306215    1.27255324946070
H           1.74728317051532    1.20524771346613   -0.22493829152276
H           1.63226635993524    1.64310748632304    2.07656974510896
H           0.53950548270694    0.79907637833467    1.34523600728982
N           0.86985762954279   -1.58052981472855   -1.29730227380815
H           0.95818553199511   -2.08469225994032   -2.17272662057952
H          -0.13693615205499   -1.18772992406486   -1.16180703303978
H           1.00030982003059   -2.21046090479020   -0.45254394994789
H           1.50407729847725   -0.76362475477767   -1.26708639843182
