    26
        -50.44576780  Gyration_radius:  2.49232567637 Dipole_moment: 4.980
 S           1.71049823394453    0.79419821011954   -1.54863420785000
O           1.09282671894073    2.07319088377222   -1.28678309862269
O           2.64735950936414    0.72643238228007   -2.60464356880852
O           2.39243151241461    0.31040176832014   -0.23631405355579
O           0.57230800942312   -0.24419294788029   -1.75042395181038
H          -0.28800958931182    0.22241130074974   -1.45884628952794
H           1.78075617217140   -0.25841414044872    0.32214852101059
O          -1.39879641351953    1.11831271029782   -0.93108968025930
H          -0.94644523511987    1.93989119825329   -1.16138761271029
O           0.90717355275387   -1.21194183323041    1.21401363295247
H           1.47773140957750   -1.79908084679296    1.71202145734633
O          -2.90933027074679   -1.02104128489581    0.27829242082395
H          -2.62329285882619   -0.53816177357963    1.06106183669230
H          -2.90319684536727   -0.37781986973527   -0.43779770666161
O           1.07380280500814    2.54177652435644    1.34272185494340
H           1.10220755402085    2.51249372065982    0.36589385305840
H           1.96420070292635    2.33937456639851    1.63425534783685
O          -0.93565262824832    0.78000054666646    1.63507527123354
H          -0.32890684198316    1.54083280199803    1.73876690895904
H          -1.30429611226129    1.03214372802245    0.05913767532717
H          -0.35297652187395    0.00358300372137    1.66003889809915
N          -0.58954592428096   -2.58630509594120   -0.36648906333874
H           0.33633818119470   -1.80364212645796    0.58331632606424
H          -1.52302003054369   -2.21232335534071   -0.17914120308062
H          -0.31530560944693   -2.28589716173617   -1.29444665803937
H          -0.63885946020702   -3.59622291958761   -0.35074690008301
