    26
        -50.44576779  Gyration_radius:  2.49223721161 Dipole_moment: 4.983
 S           0.32326292891737    0.36700149916097    2.39041489701612
O           1.33769045646930    1.28478938772551    1.92725014739753
O           0.29610128598472    0.06768719083533    3.77142184668309
O          -1.06469577338273    0.92965162935171    1.96780124681538
O           0.44266706879396   -0.93098255757087    1.54465011883828
H           1.07589394326619   -0.70721828086089    0.77537481984068
H          -1.36078295572870    0.57873200266589    1.07398150687810
O          -1.92039744364122    0.02050654640304   -0.28323859634236
H          -2.87843284440634    0.02637292432754   -0.26289491637740
O           1.99582114042691   -0.10970788851270   -0.27903456257139
H           2.36585348625765    0.55566181511805    0.31515509339606
O           0.90158662890183   -1.62856500418555   -2.47383303125123
H           1.67661446110607   -1.51298077995809   -1.91485143910195
H           0.62157247210413   -0.73869808432890   -2.71349158620334
O           0.24788365661078    3.04922073727000    0.24342783411015
H           0.73073005239449    2.51351799444099    0.90344854466238
H          -0.54819969296318    3.34919121483983    0.68516573591111
O           0.15962365131519    1.16072696073938   -1.66768605895850
H          -0.67275258243447    0.77192923374569   -1.35321063690452
H           0.22649756520894    2.01051443530773   -1.18683880250623
H           1.36372488163389    0.38626841419215   -0.87178096226384
N          -1.07053104608642   -2.39671476175783   -0.53252228078272
H          -0.55187962431235   -2.56898231705263    0.32063402999194
H          -1.67726097177407   -3.18565705417818   -0.71156097860385
H          -1.62317399578502   -0.96848710286279   -0.36852063168223
H          -0.39741675888501   -2.32377815485398   -1.29926134792201
