    26
        -50.46072737  Gyration_radius:  2.44913712225 Dipole_moment: 6.380
 S          -1.31593499235919    0.65568053783790   -1.16320403652367
O          -0.03032412977761    1.37358556859036   -1.19642730529893
O          -1.61197767499764   -0.02336865067658   -2.39080912195748
O          -1.28371826206658   -0.30167291169803   -0.02881412875313
O          -2.41673395162546    1.69787617571440   -0.86489761579699
H          -2.03535798513307    2.35687915814653   -0.21894566739344
H          -0.75942971268819   -1.59480278533487   -0.96177832212011
O          -0.24529235528560   -2.21861920196989   -1.52403981606808
H          -0.66748683494124   -2.11603907974012   -2.38320846864334
O           2.20616803547511   -0.69504965540368    1.39276903397543
H           2.83901280057295   -0.95105886223609    2.06429787621514
O          -1.43688357364162    3.25027287120493    0.98136184968939
H          -2.10946767837613    3.34594805490961    1.65953326366378
H          -0.78152106820788    2.60592502601765    1.33562386228435
O          -0.05446052423781    1.15072039481039    1.82651780637647
H           0.87053375170255    0.91004274553087    1.71002878724551
H          -0.54909302867067    0.60626645302778    1.18038362773487
O           0.03967180039081   -2.21593825787494    1.43848221489954
H           1.41320121906672   -1.27801981817265    1.51603939479329
H          -0.60708233098234   -1.54734262257505    1.15799695884776
H           0.04472999022709   -2.86848457310814    0.73218671278830
N           1.73661396611942   -0.44132235613513   -1.26483354430362
H           1.12175124004751   -1.27119612775949   -1.46224466791785
H           2.46556582191802   -0.32741873872596   -1.95964122534660
H           1.04232401334704    0.41652359722557   -1.27005533665229
H           2.12519148413744   -0.51938695162038   -0.30632213173955
