    26
        -50.44596050  Gyration_radius:  2.52118708678 Dipole_moment: 3.882
 S           0.20548450605275   -0.39044045329713   -2.43757863494083
O          -0.36408825885369    0.92750592548531   -2.26585805649549
O           0.70226165978852   -0.71499176900618   -3.72061014215330
O           1.31170665481011   -0.55489430116410   -1.35216054826834
O          -0.83790475843980   -1.45372307365082   -2.02029177812958
H          -0.99873146030633   -1.40522548520608   -1.03348770071704
H           1.31422624973764    0.30138518736314   -0.80469832334921
O           1.10530355799783    1.66114428999686   -0.11950081129100
H           0.74361498221857    2.08109027097191   -0.90853269485739
O          -1.11752892656020   -1.47700686496502    0.54673659614377
H          -1.69732496286051   -2.19848730178750    0.79541812412371
O          -2.45265095163449    1.81457095234641   -0.84557887629634
H          -1.75194992458297    1.46374815548484   -1.43033810776620
H          -2.91370542121841    2.48467964641723   -1.35095692162216
O           1.56281495132203    0.58733823525996    2.57628322921416
H           0.63743709351000    0.85813119220478    2.59145682908734
H           1.97870150666890    1.12896740235879    1.89885772970718
O          -1.02979241426747    1.13943742417091    1.34031768295833
H          -1.68644142676248    1.55773575912672    0.75563137274314
H          -1.14936879536107    0.18670020400622    1.17971972218784
H           0.31910328599142    1.51346176322405    0.47616342669501
N           1.30740579784696   -1.95866826336330    1.26974689918765
H           1.60828863707478   -2.80704318612239    1.73041894889569
H           1.82748519922169   -1.85305360857352    0.40613603035536
H          -0.16168287582146   -1.72944767907075    0.85287002433958
H           1.53733608443392   -1.16291441222307    1.86983600025404
