    26
        -50.47229296  Gyration_radius:  2.48043206645 Dipole_moment: 1.998
 S          -0.29016045920809   -2.13171573789599   -0.75327256293185
O          -1.27670410423578   -1.10920833209089   -0.41801760409344
O           0.67735869861666   -1.64766655812982   -1.71648143729838
O           0.30185069158497   -2.71861456138669    0.43317449907757
O          -1.08017750445896   -3.30557145389289   -1.46703089833281
H          -1.42783786151966   -3.77898756673794   -0.71876776017799
H           1.17662964965125   -1.57937523303157    1.13840831194461
O          -0.83613861067140    2.30815010775278    1.19623277868178
H          -1.22643261805928    2.92568990943060    1.81498664142433
O           1.64448741425099   -0.84564638520331    1.61361107609195
H           2.43831335223197   -1.23607051777190    1.98257621516995
O          -1.70098729298308    1.40939776710808   -1.26726583769368
H          -1.77878192453046    0.46926868806798   -1.01401156990179
H          -1.54614982852694    1.88096153520108   -0.42891876175529
O           1.71940005967054    1.62509549838084    0.43389671339181
H           1.78437472783186    0.75949482657927    0.88011595498551
H           0.90070156942782    2.02954923641879    0.77360787887244
O          -1.03359186707626   -0.14585712954546    2.04978222733750
H          -0.96795402666669    1.39560651822458    1.58490575443166
H          -1.23604989037551   -0.58448695545819    1.19706240313189
H          -0.12295692829706   -0.40570107497250    2.24588639409153
N           0.79297924523141    0.95221296210453   -1.94052454994672
H           1.29945627079437    1.27616567718065   -1.06386714949372
H          -0.22373149095102    1.25287817574010   -1.83829310655818
H           1.22188429449399    1.31109154266321   -2.78530644604216
H           0.79021841317133   -0.10666093901413   -1.93248917413319
