    26
        -50.46415449  Gyration_radius:  2.51957666996 Dipole_moment: 6.950
 S          -0.48271238348073    0.32933542886187    0.01081669448320
O           0.57762886869345    0.92638170757675   -0.94448670419872
O          -0.45151666542550    1.20945656274409    1.19341753535129
O          -1.76881176143801    0.32108210449752   -0.64226729928095
O          -0.04204633662941   -1.01045371419131    0.40102621388531
O          -1.04472401182958   -2.18473652051275   -1.76698315561266
H          -0.64872394942713   -1.91466826750003   -0.91680396475907
H          -1.92056035250694   -1.78765220956294   -1.76638093951623
O          -2.08452868401367    1.09906925009411   -3.16296391417572
H          -2.09361461032096    0.83202380480704   -2.21939835454700
H          -2.14855949831104    2.05501342073901   -3.16982197138925
O           2.23549663377538    1.40449241124811    1.23747440949788
H           2.52918759246265    1.53690490607389    0.33286811727747
H           1.26488114952742    1.49760970460833    1.19711131266087
O           2.01801157346591   -1.13575408192070    2.02510910533476
H           2.40705502876889   -0.26810440711670    1.77666259281837
H           1.39054927514170   -1.32801365685313    1.29275031489390
O           0.22842211142101   -0.27740675309222   -3.12606905106118
H          -0.55504694186503    0.21884375893936   -3.43886235008382
H           0.50079226514195    0.44390954531497   -1.85422504358962
H          -0.13202764682751   -1.13431560005926   -2.79994357885737
N           0.02742721715403   -0.16918073446745    3.31163510454004
H          -0.69413116827310   -0.85357874541878    3.51335051873668
H          -0.27297715366331    0.44355301780775    2.47041173048417
H           0.22255048153748    0.40957026980934    4.12235870434815
H           0.93797894691913   -0.66338118242681    2.92321397276191
