    26
        -50.46072737  Gyration_radius:  2.44916940041 Dipole_moment: 6.379
 S          -0.70263820630922    0.18720043644440   -1.72801030442837
O           0.69092990702384   -0.28489213487172   -1.66155279643617
O          -1.60266987159380   -0.79271064228390   -2.26232649609861
O          -1.12054239464014    0.59391484156215   -0.36257513889997
O          -0.71816775017398    1.45004873602490   -2.61790141503500
H           0.12054298222963    1.95774092640903   -2.42866050451475
H          -1.80238041794809   -0.89261826974878    0.01551631624566
O          -1.96695438332968   -1.83953934274688    0.22973872995925
H          -2.35612562937450   -2.16993602599194   -0.58656343676353
O           1.34978240179278   -0.54942316881735    2.27299533886538
H           1.74916522805440   -0.53527044144239    3.14321379171847
O           1.08380138471344    1.79808389970664    0.50553080953513
H           0.24267593689649    1.40129132149295    0.19948509521358
H           1.55399897356290    1.08797723317896    0.95479994739784
O           1.37562214380144    2.83114870505708   -1.91953700149185
H           1.46746400519239    2.44942340661127   -1.01617081322272
H           1.08986879060852    3.73933521835662   -1.79696734468543
O          -1.21236493690822    0.11361201148304    2.34481465667359
H          -1.78420422412610   -0.65589423033346    2.27016954728445
H           0.41398280218196   -0.24122738635040    2.38730064498954
H          -1.26806339408041    0.55270931507124    1.47989092298866
N           0.69545150306683   -2.07600991554529    0.13070793499987
H           0.78614068437880   -1.33690382889896   -0.68386114647236
H           1.16043669252634   -2.94417578765305   -0.10841997791639
H           1.09600736293343   -1.64577381054676    0.98525221826915
H          -0.34175960048864   -2.19811107617801    0.25313043182833
