    26
        -50.45882420  Gyration_radius:  2.63353725077 Dipole_moment: 6.266
 S          -0.38403232647979    1.06177351196516   -2.51004409907913
O          -0.34812971301752    1.93823650996768   -1.35206818229346
O          -1.20702951968213    1.50279242016687   -3.59066175464242
O           1.12705947111074    1.05835632867555   -3.09240926991437
O          -0.60005725383739   -0.32507258378172   -2.08583626553440
H           0.72531711991073   -0.18513555642855   -1.21440546552108
H           0.99359318941218    1.51601909061946   -3.91562668929638
O           0.83909521733288   -1.10472711281269    3.24081963496644
H           1.66320607827123   -1.15360377393134    3.72629413059388
O           1.53507706727716   -0.21907889794592   -0.64513100680321
H           2.21898283339179    0.17699330760961   -1.18873579558050
O          -1.68044353817586    1.49809747190702    0.80367503632119
H          -1.18970044485589    1.69311398584317   -0.04221233564969
H          -2.31064372500765    2.21158803178243    0.90993841612895
O          -1.94898406415328   -1.08894216384126    0.04478167795260
H          -2.02302144716959   -0.21695301588997    0.47889483328344
H          -1.61838830959941   -0.87674371790359   -0.85648010797628
O           0.86028750236757    1.05429348189195    1.76816080449546
H           0.82492522435135   -0.20628498582958    2.80863400526423
H           1.18883102335887    0.77457395650478    0.89743754424372
H          -0.05437400772675    1.33801535609719    1.60354972683340
N           0.29070566750669   -2.11842304022845    0.84836426801051
H           0.94995927772832   -1.58449095818569    0.25476456574913
H          -0.70099716483892   -1.75099199147885    0.58107948176816
H           0.36175305882347   -3.11410996386570    0.67304895633248
H           0.48700876382449   -1.87929572081230    1.85416790038818
