    26
        -50.47229292  Gyration_radius:  2.48044720356 Dipole_moment: 1.999
 S          -1.06838657962455    0.94244102054712   -1.77872669620335
O           0.30285934745583    0.45850241568395   -1.65117069681748
O          -2.03151663479727   -0.07419776176156   -1.40807923775837
O          -1.25844113531243    2.20992051273889   -1.10030755110054
O          -1.30298686371152    1.23924373519862   -3.31783248274918
H          -0.93111465768858    2.11106015004651   -3.39855452188486
H          -1.10892611881376    1.92972664963180    0.46840469183529
O           2.21807767921026   -0.76122970317859    1.40106319176279
H           3.07291540042095   -0.75180752886726    1.83193715151112
O          -0.92914637622491    1.76388271100965    1.42921126461068
H          -1.55137907387216    2.31111318927181    1.91087974953649
O           1.38241232350423   -1.91020022580882   -0.96718756448056
H           1.13408365605900   -1.07412235769760   -1.40689246443347
H           1.84938901464595   -1.63616094370913   -0.15729576529399
O          -0.40630393369965   -0.80330370303963    2.23021773642151
H           0.56050019640951   -0.85037430865646    2.11904422238853
H          -0.64558819452512    0.12038251128698    2.02530979665979
O           1.65233217427511    1.55952323731596    0.35995883439986
H           2.08509670345069    0.15219969097352    1.01482926277254
H           1.23091178400888    1.25183021483651   -0.46961831728417
H           0.91857463983844    1.89053036059820    0.89603990192310
N          -1.05354870548309   -2.04649837671552   -0.00242605339902
H          -1.52289511179467   -1.30233026278987   -0.59178032704736
H          -1.60263596361306   -2.89766017867931    0.01852807054827
H          -0.08653020950061   -2.19383449075923   -0.42388413954958
H          -0.90775334098523   -1.63863656757709    0.96833192372590
