    26
        -50.45309725  Gyration_radius:  2.45108141237 Dipole_moment: 9.325
 S           1.92949509091883    0.54537497671587   -0.26075853690097
O           0.91038076006158    1.34848032668239    0.41311874540541
O           3.20264352105842    1.16099134127716   -0.41374957614921
O           2.10122491757517   -0.73185037548490    0.67620840724755
O           1.36361753281627    0.01471758200748   -1.52043857014306
H          -0.11902711022311    0.24002664418874   -1.59646420877827
H           1.21634252780048   -0.79637278293510    1.07072549330070
O          -0.42197496068040   -1.17028167411575    1.61727014110375
H          -0.38676140748006   -1.82940992868224    2.31157841115082
O          -1.12793336854173    0.35744181740926   -1.67979790100313
H          -1.24236623289734    0.97579622782331   -2.40288818635854
O           1.49079002065518   -2.60703887403777   -1.40064692630965
H           2.12320375278066   -2.73805933919960   -0.69015055375184
H           1.53445575888839   -1.64286307940010   -1.59420466981608
O          -0.54826954500279    3.35242404040109    1.05992033819274
H          -0.20105229933108    3.72283893282919    1.87303638650928
H           0.17097086972020    2.77278051040323    0.70659681930465
O          -1.02415722621625   -2.27952443854062   -0.62180138488897
H          -0.13841092688591   -2.57478693020026   -0.94832339909405
H          -0.68405225967264   -1.65758448715063    0.76926831062502
H          -1.25994771607365   -1.54000703031489   -1.19753852328372
N          -1.81066102995570    1.01987467707477    0.78506208745939
H          -1.58292338201541    0.82579737022481   -0.23834884570112
H          -1.43706053277479    1.98247668732500    0.99854328242761
H          -2.80362112013787    0.93094633231236    0.97285393700772
H          -1.25490566438399    0.31781146338765    1.31092890244325
