    26
        -50.46415447  Gyration_radius:  2.51963433719 Dipole_moment: 6.950
 S          -0.20394788678071   -0.50125743874363   -0.22099441045075
O          -1.38149706223482   -0.92591879941427   -0.93776687127216
O          -0.50976972146834    0.44726245559070    0.85060128422312
O           0.55811780247853   -1.63176430393794    0.34056623210526
O           0.77969455390004    0.17998147016799   -1.20152096863991
O          -1.73451431082261   -0.40542048198811   -3.51888645605362
H          -1.25740341466724   -1.06790249288436   -4.02025782623015
H          -1.69126268946303   -0.68977563769070   -2.58132905947503
O           2.83856115139978   -0.22499415628748    0.62501939460125
H           2.10023939078437   -0.82868085340052    0.41793506418105
H           2.95858037449082    0.29367797620345   -0.17413147764995
O           1.42003394992201    0.93920234352596    2.56224903686095
H           0.65424197977680    1.05484349593013    1.95616149340792
H           2.16244707803987    0.71417508219624    1.95893827870833
O          -2.42402998663978    1.68392244200395   -0.52466328127626
H          -1.77686974466598    1.32542329472176    0.11191966353716
H          -2.90913261483048    0.91573001861953   -0.83985631307704
O          -0.62714977220566    1.82136124933048   -2.48874120273297
H          -1.32399410642672    2.01915803984630   -1.82104420814246
H           0.25924752075592    0.89146755803505   -1.73933240241280
H          -1.04870635663573    1.19206039870078   -3.10863791284302
N           0.62564667612991   -1.46947468797600    2.90688232960428
H           0.54602077069431   -1.64048978617666    1.84022495073126
H           1.27498881377318   -2.12768230585440    3.32569920859059
H           1.00246030920503   -0.42986004911974    2.94590577760527
H          -0.29200269451231   -1.53504484139710    3.33505970609394
