    26
        -50.44865848  Gyration_radius:  2.47397316231 Dipole_moment: 5.856
 S          -1.63038279265586   -1.22126898665290    0.34133982792383
O          -0.58996064174687   -1.97730457622809    1.00315701198639
O          -2.66210381857650   -1.98401073161960   -0.26300192318672
O          -2.22158355025643   -0.20512836236339    1.33892884747256
O          -0.97814794586998   -0.28418150230953   -0.70507784900060
H           0.00288600125256   -0.52986808566607   -0.93092382088835
H          -1.43140837534166    0.32451380141989    1.65195780057620
O          -0.11748257305238    1.14585205311324    2.00903670213298
H          -0.25549645240540    1.59228818079000    2.84675418692900
O           1.40435581145673   -0.89781457123826   -1.26016826152675
H           1.21270693423903   -1.82873499991365   -1.47333559587420
O           0.48543568923641    1.63936256396143   -2.25032319128687
H          -0.37836307733307    1.21694536227202   -2.23248437173482
H           1.12260214343807    0.92067484912127   -2.15776837493293
O          -0.07733632665329   -3.18026342277366   -1.34025960312637
H          -0.95592811733331   -3.26580148529319   -1.71669012038757
H          -0.21876229653849   -3.04294273772186   -0.39072782390544
O           1.80287094820097   -0.81708299923886    1.33820819865340
H           1.77417822611465   -0.88352176880338   -0.33847115369553
H           1.42384794228815    0.01509846582811    1.65212229619620
H           1.06711723928156   -1.44847770471493    1.42135001017034
N           0.26104275295598    3.02663163874637    0.24482921717075
H           1.08602315003560    3.58811356477224    0.41705811682686
H           0.38891677030305    2.56618193324307   -0.66212259897752
H           0.01279506542885    1.87597941306313    1.30322969252858
H          -0.52782270646165    3.65476010822722    0.15338276993710
