    26
        -50.45406835  Gyration_radius:  2.52453312995 Dipole_moment: 5.879
 S          -1.09547488446538    1.43084848592152   -1.40959493227775
O          -1.07871767611752    2.71411526942420   -0.76026067811014
O           0.02985407459349    1.23178557591229   -2.33321325583938
O          -1.23267534447544    0.29185027599372   -0.52606153527756
O          -2.40157078839857    1.42450410477463   -2.33109068872029
H          -2.52822292266891    2.35317290650625   -2.49723004240525
H          -1.03089328398520   -1.26621892297009   -0.61635595161955
O          -0.74800915181562   -2.21368424987657   -0.74453537674198
H          -1.53165058377420   -2.68705277412508   -1.02593531807167
O           2.14277810400878   -0.12250119649322    0.78445020989425
H           2.94498152191702   -0.13688216506633    1.30736284415627
O          -1.11746316132816    0.07406717223731    2.85821900788326
H          -0.98426618895500    0.37071573236341    3.75967652270093
H          -0.76329990777482    0.79552819415321    2.28507532705439
O           0.21689593320523    1.92580270727877    1.46716095401300
H           0.92282344056435    1.37896791695802    1.09790983571187
H          -0.28181995944859    2.28165784995891    0.71026903012322
O           0.45225118584637   -1.78849169853494    1.78519726054376
H           1.50101222349416   -0.76582931783249    1.23035606121544
H          -0.18216623065106   -1.18588160188810    2.24148652299337
H          -0.02541886785390   -2.11227872731526    1.00816376348988
N           1.38270527696435   -0.82278104915842   -1.67433854673916
H           0.82356354691157    0.05600048440805   -2.00874793329771
H           1.83772937808699   -0.54904409493974   -0.77127668866450
H           0.68585954813658   -1.56245279413737   -1.46875793679868
H           2.06119471797641   -1.11591808354719   -2.36792844521320
