    26
        -50.44413455  Gyration_radius:  2.53126614422 Dipole_moment: 9.212
 S          -0.77223386885970   -2.61705937995473    0.08686022890024
O           0.65636693018841   -2.54863403734587   -0.31840492097178
O          -1.23115165297716   -3.91836172192973    0.41916540377496
O          -0.85722068233394   -1.68984549097657    1.37151096609914
O          -1.58005535441449   -1.91288106261148   -0.91720039378666
H          -1.68133811567859   -0.44267151543725   -0.79703089650707
H           0.03641437384024   -1.31380041447126    1.53559167802805
O          -1.66564785134867    0.57964575183628   -0.82872842116696
H          -2.52041400067674    0.82462961623612   -1.18683589113706
O           2.29340180555699    1.35746114671537   -0.37067375732485
H           3.07884819499681    1.90481183349172   -0.37221057470261
O          -1.22869891294610    1.14385446629203    1.88151684174576
H          -1.55840270424542    0.47569038512225    2.48672248637024
H          -1.48852987424702    0.83160770240512    0.99603259698854
O           1.22621839506042   -0.11816938427675    1.80550024297707
H           1.76167623723604    0.22367341237065    1.07653844034224
H           0.52506297434572    0.53745785158537    1.96511323938051
O           0.03042838316517    2.69520329403272   -0.13873730176422
H          -0.59363332295978    2.06306203854937   -0.53057184004503
H          -0.23428849068860    2.75195396214989    0.78594591033601
H           1.51386019693097    1.96358378523711   -0.28205993463274
N           0.86775270001612   -0.52912317385933   -1.76365698218284
H           1.10378648347586   -0.79013864103591   -2.71374155222530
H           1.57175094118163    0.10931541134226   -1.36237354774169
H          -0.05656931195902   -0.09068994095293   -1.72614332943409
H           0.80261651733971   -1.49057587451440   -1.10212869131880
