    26
        -50.47229211  Gyration_radius:  2.48066301749 Dipole_moment: 2.001
 S          -1.60567864021467    1.27323976335488    0.99641778405773
O          -1.70677875549138   -0.02643608023712    0.34002438348262
O          -0.59690884943418    1.27003159479443    2.03628838729052
O          -1.46089346069643    2.35240031347786    0.03845425707476
O          -2.99301644871257    1.52627388174544    1.71997260219267
H          -3.50807580138630    1.89475538136801    1.01019669556912
H          -0.03024494064117    2.17626070078270   -0.65762067966907
O           0.81745457587143    2.00998269480863   -1.14414285859367
H           1.20264305399902    2.87316476698465   -1.30295159135247
O           0.86511801590947   -1.99183617567245   -1.65775341089963
H           0.98274071458337   -2.55586740384533   -2.42228774862055
O          -0.49079415584019   -2.39880234002644    0.71319902221651
H          -0.03325199394797   -2.47091764365507   -0.14391074053428
H          -1.13220513285786   -1.67210580073082    0.59305170959338
O           2.37741582542322   -0.09822484997420   -0.35169528382953
H           2.01454250605930   -0.82418825602586   -0.89071114011826
H           1.90353722745355    0.70304836807741   -0.64464834759726
O          -0.79376427127338   -0.04579904909383   -2.15863155539433
H          -0.24271862021248    0.74883865631152   -2.14450219666710
H           0.20633749381978   -1.28730541422089   -1.92374286560385
H          -1.26868064860130   -0.03046438815597   -1.30146989051238
N           1.11976334638168   -0.69304484469393    1.88766940776481
H           1.63737766851779   -0.90087704500738    2.73341129011774
H           0.45048101655374    0.11394314218787    2.03685249842369
H           1.75894455379253   -0.43153612817791    1.07964516320591
H           0.52665573102576   -1.51453386483594    1.55888509846053
