    26
        -50.46251698  Gyration_radius:  2.45982320966 Dipole_moment: 4.366
 S           0.06383382725240   -0.02339268694054    1.01467508707981
O          -1.25629409426505    0.28730945968652    0.35899863999803
O           0.31365132713577   -1.46005891845238    0.89645506856039
O           1.10488416473124    0.73687316316303    0.28126172277182
O           0.00366603450477    0.42444073801679    2.41104185216471
O           1.18440233463184   -0.25016236421746   -2.12367868737026
H           1.62435413722730   -1.10026860418509   -1.92505843788180
H           1.23602261025786    0.24453576075909   -1.26619252227667
O           2.02903382536856   -2.45896561490912   -0.82292914386247
H           1.46813018297812   -2.08346181744861   -0.10145263179112
H           2.91617983806065   -2.51167291557027   -0.46653289253657
O          -0.86145228264247   -3.10692443408722   -0.80228735898991
H          -0.05418949666940   -3.49283489825112   -1.15866345267325
H          -0.57249218403521   -2.63184661302001    0.00834463399508
O          -2.07122519023093    2.77488599829357    0.55280413964893
H          -2.92081968276011    2.76530765338728    0.99613264074008
H          -1.83728840178888    1.82573643137771    0.40274601722031
O          -1.24851737504172   -0.79560411435267   -1.83810603948456
H          -1.22127639519692   -1.77782149951490   -1.56436387063414
H          -1.33533402281194   -0.27852404863150   -0.87083370904090
H          -0.26380815783420   -0.55241241905987   -2.11826488071794
N           0.35198962250720    2.76500758187647    1.64434514539687
H           0.87839981058869    2.28516669150298    0.87429044112719
H           0.87542285298515    3.49203446783747    2.11752796549195
H          -0.57024904262416    3.08081172373527    1.27171179192843
H           0.16297576767472    1.84184129900483    2.22802849113242
