    26
        -50.44262611  Gyration_radius:  2.54285386778 Dipole_moment: 6.012
 S           2.13613193751838   -1.07155137954711    0.52258876766496
O           1.01196682722166   -1.92526137733634    0.83106389637906
O           3.07714211143794   -1.57020728441132   -0.41406918873923
O           1.56461678093913    0.29533989024167    0.02434253792324
O           2.81650709885202   -0.63530259439027    1.82930941847722
H           2.03984766993390   -0.39549576867678    2.42450204366694
H           1.34314972294962    0.27374353429701   -0.95067101953968
O           0.84681974550669    0.49010189393740   -2.45563216660601
H           1.54228865404966    0.93431116071905   -2.94435659110089
O          -2.49311679737952    0.27119686254950   -0.26029963453960
H          -3.38170562248015   -0.07866156823481   -0.18979592995914
O           0.52503539109254   -0.29072567160785    2.90176332976620
H           0.08565256474343    0.46437548227575    2.46021352310690
H           0.32882836542829   -1.06286629496895    2.34859093165033
O          -0.97373623311418    1.56807243081163    1.58003097766553
H          -1.55114560430878    1.03419934112388    0.99695575768156
H          -1.55029833110908    2.07020452039082    2.15821513779128
O          -0.78132509362026    2.18754228248778   -1.29337203889177
H           0.19555493043742    1.18855118155845   -2.17394897516381
H          -0.34397125745727    2.25519202469314   -0.43519460879709
H          -1.56396010087678    1.63871669384078   -1.12485423483946
N          -0.94521640280330   -1.61906139806958   -1.21915186453935
H          -0.39140208422658   -1.20921537648173   -1.96363940349886
H          -1.32334959023668   -2.49290314359840   -1.56335988970821
H          -0.29684430566424   -1.84283453243092   -0.46340549182329
H          -1.91747037683082   -0.47746088916405   -0.62582526402262
