    26
        -50.46648937  Gyration_radius:  2.59546712007 Dipole_moment: 2.920
 S          -1.78298443102575    0.51456990381740   -1.08666902127747
O          -0.48301398305022   -0.07551452739084   -1.40727890162534
O          -2.00022426437294    1.78633127512367   -1.72346531375288
O          -2.86826447007193   -0.47563177661319   -1.69551690268386
O          -1.99789256940665    0.50097141213788    0.35418710088895
H          -1.26547063643944   -0.60002008331514    1.26087998609548
H          -3.14024165737545   -0.02053729651274   -2.48587719139034
O          -0.71503342528816   -1.21799186676351    1.80872375683428
H          -1.20149123938420   -1.35048411398007    2.62329351553595
O           2.56814532890775   -2.34862075969411   -0.31163322343899
H           2.95598672844869   -3.11848140931162    0.10496119466090
O           1.90987240177907    2.54461267121047    0.77051645534864
H           0.95453586449060    2.77201009995734    0.67523739490408
H           2.37295854917298    3.06854650020685    0.11535134630273
O          -0.69816961746677    2.86827311994079    0.34089330425925
H          -1.19763285319069    2.17703822387655    0.79645505791563
H          -1.05740735930552    2.82158528235907   -0.56075100318545
O          -0.07716335866871   -2.62855028056234   -0.56851659933955
H          -0.30935691610376   -1.83089463553065   -1.07618046538427
H           1.63556654192223   -2.58874377655644   -0.53187349549640
H          -0.38070207026458   -2.44148169810873    0.33117267970753
N           1.38234465986333   -0.06301081803680    0.46738138126311
H           2.09370528470012   -0.78080713106173    0.22862632464439
H           0.70800184784511   -0.00045750561867   -0.34167136507286
H           0.82326131961721   -0.40237514129429    1.26375687805711
H           1.77067030470981    0.88966432175423    0.64799712621013
