    26
        -50.46715620  Gyration_radius:  2.44523288248 Dipole_moment: 6.596
 S           1.85722399612893   -0.20143610211791    0.15405394651775
O           1.41832203512848    0.74401400263724   -0.89055348934680
O           2.70078664435339    0.41574200975664    1.13736730231607
O           0.67647904729018   -0.83749657847813    0.74696437498047
O           2.66683952403796   -1.32892871367532   -0.55624332728579
H           2.07501103000496   -1.62286764277911   -1.27200654108377
H          -0.36518058127551    0.08414112147486    1.70715691279108
O          -2.05738413097124   -0.91962652849396   -1.70902963475822
H          -2.78459144202134   -1.30961374405174   -2.19520681103721
O          -0.94802892600360    0.82910308952263    1.97396294496709
H          -0.30699972766877    1.51156519846269    2.25939368021852
O           1.23308298505564    2.35799064268177    2.18398989825155
H           1.71473808720424    2.68103005195153    2.94757496010433
H           1.82143323802087    1.68903809929594    1.76758055802264
O           0.72781415770881   -1.30322912524479   -2.41342635430505
H           0.96527117056038   -0.40034588730440   -2.14223670683382
H          -0.22598607982029   -1.37156879387368   -2.26987392918237
O          -1.48785906217589   -2.28858912569551    0.44818446463398
H          -1.90803377290197   -1.49240629989133   -0.90994647055538
H          -0.58909105280680   -1.90420419370073    0.54372452644751
H          -1.94519339295678   -2.06708007383288    1.26229784215050
N          -1.07544998788043    1.36887245650419   -0.57063658990892
H          -1.59255842550402    0.63096485116772   -1.08022057887671
H          -1.34460120392984    2.29758346734211   -0.87499084223798
H          -1.19590793298788    1.23686080252891    0.49027054287282
H          -0.03013618654828    1.20048703582670   -0.73815064889085
