    26
        -50.46065189  Gyration_radius:  2.49171265028 Dipole_moment: 5.344
 S          -0.66149084331902    0.91346574744812   -1.30647798677401
O           0.79352677050713    1.07683311184590   -1.15579485076094
O          -1.00397020426213    0.09148416786659   -2.43186253827069
O          -1.19651982491203    0.34592956741215   -0.04411829842742
O          -1.30015599193805    2.30687359198740   -1.50372932394249
H          -1.03067995965050    2.93779456389375   -0.77759456270729
H          -1.38847067736182   -1.23858095921507   -0.61485563890718
O          -1.23224404435467   -2.13803062457140   -0.98115872491502
H          -1.56111816152215   -2.06172675454904   -1.88255295868888
O           1.97380845244672   -1.82243419313401    1.48480881817155
H           2.33045308255544   -2.49265284602790    2.06848702807095
O           0.47085179978356    1.71117131271669    1.52639648807728
H          -0.18982050362087    1.16958563352448    1.04969344179830
H           1.26744160518114    1.63316310529453    0.99193841660852
O          -0.70235554196109    3.84143796043208    0.51665491901631
H          -1.50925483307467    4.00350100661475    1.00977928957405
H          -0.18664692952290    3.17230680746445    1.03292677647628
O          -0.65362014778441   -1.60994176089081    1.86310835483342
H          -1.06457092805568   -2.31699339865311    1.35707961164757
H          -0.90917930739362   -0.79256391049596    1.40694458870215
H           1.03857650701435   -1.67416159092352    1.76485061434714
N           1.36472722763188   -1.43261700476851   -1.08744433707982
H           1.77422517553041   -1.64317064086194   -0.14799907532370
H           1.22967091906677   -0.36240586076008   -1.16505456283759
H           1.95082187052853   -1.77153345511404   -1.84255420575657
H           0.39599449847545   -1.84673358652111   -1.13147129297247
