    26
        -50.46072736  Gyration_radius:  2.44909573339 Dipole_moment: 6.376
 S          -1.29242277786553    0.00258427756174   -1.35749854292004
O           0.08815780399800    0.26155034912258   -1.80059608659075
O          -1.82296995551250   -1.22924984005523   -1.86436651063109
O          -1.31276097358122    0.01100803774176    0.12700470952684
O          -2.16061255854597    1.18425614780594   -1.84434460441579
H          -1.60767378045725    2.01182348649401   -1.76454049583590
H          -1.11725150768423   -1.64974617089412    0.27211557786088
O          -0.77857798197535   -2.57437088749488    0.26560739718205
H          -1.26112266623834   -2.96434691633384   -0.47062732331877
O           2.18125651725923   -0.06120182720334    1.58976059518337
H           2.82468774698849    0.05380895565378    2.28959243100252
O           0.33096626827052    2.03409725571681    0.64503856197719
H           1.18386435374573    1.59828911709022    0.74413037409275
H          -0.31311857394032    1.31378977412224    0.48721448095395
O          -0.74565580180314    3.32545787364901   -1.40596082721777
H          -0.17934807687044    2.94412961491729   -0.69599063078016
H          -1.31926027433535    3.96319177777902   -0.97504643697740
O          -0.20078801757936   -0.73248440505430    2.53157878972521
H           1.31578841648096   -0.25813916927943    2.03225119506345
H          -0.38041116841817   -1.67002358720799    2.41527217815801
H          -0.74677259542163   -0.28741418772856    1.86247140509500
N           1.49689452317315   -1.48025898463723   -0.61633361456859
H           0.96521242785816   -0.70901771397928   -1.19980143493699
H           2.16021651899271   -1.98438774506801   -1.19336119942050
H           1.96119285301595   -1.00203303994240    0.17829505583319
H           0.73050927039228   -2.10131217279518   -0.25186504404202
