    26
        -50.46715627  Gyration_radius:  2.44579436226 Dipole_moment: 6.593
 S          -0.36991633651574   -1.26908309600730    1.33191103726247
O          -1.51860038978501   -0.91373751681226    0.47639762250358
O          -0.05397652693469   -2.66790507955915    1.27748148818705
O           0.77163640094698   -0.42146099781990    0.97334397648708
O          -0.75757231896776   -0.90544689523291    2.79779272578628
H          -1.05403947598729    0.02012058210758    2.73540737155845
H           1.52875670968421   -0.64930748677572   -0.51895084112115
O          -0.43056869526552    2.76665380212716   -0.41322788747136
H          -0.45259358236057    3.71726981217790   -0.52773898014640
O           1.62934704699523   -0.75603647535882   -1.49084737897683
H           1.39034328064619   -1.69512569397698   -1.62985868372388
O           0.50031468582815   -3.16696209165899   -1.26538703572569
H           0.88023005481221   -4.04704918412473   -1.29152678016313
H           0.23407740536421   -3.02500251985021   -0.32936309232797
O          -1.73311881777719    1.37900315785155    1.77496523565319
H          -1.95626281216570    0.61785159768560    1.21290249970408
H          -1.28585732630694    2.00640306961207    1.19083085533569
O           1.80862577790243    1.97167976429047    0.68530740553349
H           2.54469404736988    1.75745123183144    0.10788801167787
H           0.44563175840351    2.54920328335814    0.00375556853689
H           1.44617717943871    1.10577051457314    0.97360997384070
N          -0.72747185510874    0.34121833829583   -1.64733598451411
H          -1.12742039221921   -0.21559629177298   -0.82319678273541
H           0.27035458314035   -0.04326588959105   -1.76445970588229
H          -1.29051452815884    0.20819274196618   -2.47973498268427
H          -0.69227588318628    1.33516132275027   -1.35996565668534
