    26
        -50.45649058  Gyration_radius:  2.63595265856 Dipole_moment: 6.041
 S          -0.90379987404141   -1.04110477186798   -1.28522992450356
O           0.46798946148926   -0.60601574151397   -1.55815960385315
O          -1.80315680791161   -0.92882544673555   -2.38331771955587
O          -0.79284619756343   -2.57616026023183   -0.89943558985595
O          -1.38736085784078   -0.38536974004945   -0.04768739965225
H          -1.60318847168282    1.11171959448828   -0.91752701168402
H          -0.09369326623473   -2.64404583580480   -0.22379354552011
O           0.79766243113897   -2.62959862829114    1.35171594168299
H           1.01942123943400   -3.52904469690991    1.59782821831849
O          -1.50425091935391    1.78036720344098   -1.61510228545094
H          -1.61521596270880    1.27679789833698   -2.42773766589981
O           0.58372071912345    3.36209729203179   -1.04593992969489
H          -0.11316238614281    2.72398890007006   -1.31832257119930
H           0.12357631598548    4.18721546906770   -0.88386975411666
O           2.34368560109827    2.45205432001396    0.70864576310560
H           3.17838360031237    2.47229572958233    0.23739254144070
H           1.68268438217762    2.85051466307234    0.08970427355228
O          -1.66523359294799   -1.96432175071089    2.01233942773809
H          -1.68218055998054   -1.31765608325031    1.26506880103871
H          -0.08379182595749   -2.43305070644701    1.75943622315861
H          -2.34955416173816   -2.60425454439832    1.80823233312666
N           1.10894987080145    0.09767399041892    0.79196107803602
H           1.67126603795521    0.98188991923488    0.88990106764846
H           0.12833605262917    0.24139643561710    1.05665857332072
H           1.00877522883221   -0.17191875096007   -0.25863736601375
H           1.48298398310591   -0.70664445822682    1.29587614479720
