    26
        -50.46648934  Gyration_radius:  2.59522224292 Dipole_moment: 2.930
 S          -1.78944381762429   -1.18327235616812   -0.16049197841617
O          -0.43898099751488   -1.22597523943908   -0.72194603622902
O          -2.80939585504200   -0.97351117811922   -1.15349446945281
O          -2.05163150996127   -2.63116719714668    0.44294019002043
O          -1.83310451266649   -0.26783511714029    0.97194293889754
H          -0.50204966551488    0.02489859921728    1.81635709738423
H          -2.60982882748878   -3.02986244271524   -0.21685772946528
O           0.35564805898909    0.27312879253065    2.24966656707950
H           0.12709937960652    0.57848700187173    3.12842635921269
O           3.43704152228662   -0.56154223036173   -0.27475196444623
H           4.25700481291539   -0.56950345825261    0.21942142380516
O          -2.31389752816159    1.63591430872833   -0.88265263241841
H          -2.23072673491327    1.34921974560216    0.03693861576041
H          -2.63524102732642    0.83054440616168   -1.32116859124882
O          -0.06046164054919    2.80634283145150   -1.68609194423225
H          -0.94940351717158    2.48514680353513   -1.40342182839354
H          -0.08420818222767    2.84163101943381   -2.64336830750136
O           1.54398031517059   -1.97057877871024    0.98028698499627
H           2.84784213293741   -1.23188136968855    0.14856956286639
H           1.26449426956930   -1.35179857324881    1.66974539913505
H           0.82243042955997   -1.95191123234646    0.32683975504176
N           1.14726446782628    0.85039753061541   -0.31277052437436
H           0.52138403987320    0.04711660750971   -0.58858372481018
H           0.86354277339188    1.69321650410368   -0.86053523556469
H           0.99119918104728    0.98378381195379    0.69729918069950
H           2.12944244302492    0.54901120061378   -0.46229910834214
