    26
        -50.46180284  Gyration_radius:  2.47218956896 Dipole_moment: 6.962
 S           0.34020683960253   -2.05408104099419    0.06431459556189
O           1.69478234186480   -2.41200625851838   -0.27148798631999
O          -0.64672497388073   -3.09326556555096    0.07645460930087
O           0.33666990037850   -1.48663518215938    1.54737546452656
O          -0.09171123790070   -0.90431831475010   -0.77469308059335
H           0.29183681460123    0.23243516599690   -1.87817051062905
H           0.84386425305326   -0.64943996871072    1.59317457962373
O           0.50755078188587    1.01170501924937   -2.44019111356117
H           0.29836166330440    0.75146247482443   -3.33882536679603
O           1.43115082999530    0.93847075767459    1.57587757133863
H           2.10527327215755    1.05452911392619    2.24738344012608
O          -1.28628985712978    2.67327318094520   -1.21654689158743
H          -0.64588992520898    2.12742964374459   -1.72119459261215
H          -0.90948076833762    3.55281607336119   -1.17116742175129
O          -2.52085704094729   -1.55716169875178    1.21139405084064
H          -1.88730805023006   -2.12093037274717    0.71530791290292
H          -2.68409129960735   -2.03655762556806    2.02547177757367
O           2.63139232364901    0.04566824772852   -0.53865203833511
H           2.22546871019461    0.39401487172364   -1.34044697929238
H           1.92725208376116    0.72290029905569    0.73213375404886
H           2.39214244486446   -0.91047328898937   -0.49673753255064
N          -1.29810726807490    0.78191311667102    0.71013627317542
H          -2.04127675364149    0.18115630644993    1.10577456896067
H          -1.61045764333752    1.58593790324663    0.13751685832864
H          -0.60958279378022    1.07144299478390    1.40567050592894
H          -0.79417464723542    0.09971414736200    0.04012755179360
