    26
        -50.45649069  Gyration_radius:  2.63618698995 Dipole_moment: 6.044
 S          -0.30666806094093   -1.50741851723796    1.08912522244049
O          -0.88646742837200   -1.47219749354555   -0.25544186348925
O          -1.17457259069807   -1.99076943865958    2.10908054891360
O           0.93080082764008   -2.49570056110886    0.99152259784445
O           0.29883645230328   -0.19002338540238    1.39509808149637
H          -1.28869871510894    0.48660360776926    1.65691548412782
H           1.45282558024985   -2.21256603335342    0.21876564431076
O          -2.25473235005901    0.57960620695797    1.61718747694108
H          -2.57547898981867   -0.29896510292364    1.84411187664353
O           2.61896971284533   -1.33828896407950   -0.85487374662797
H           3.34781700102020   -1.92240185923434   -1.07024200274138
O          -2.93132160027439    1.95405150840883   -0.58246830128423
H          -2.70209140966145    1.35839487805931    0.16569327153874
H          -3.28176610806195    2.74863171023647   -0.17663508567913
O          -1.11112774419638    2.13158282463885   -2.49514794267133
H          -1.55158069418140    1.78521389866827   -3.27313852251009
H          -1.79782104322157    2.13337593746296   -1.78285893211195
O           2.90792463685299   -0.16074994880862    1.48548125718476
H           3.18858443161773   -0.71857363014202    2.21312969794642
H           1.92475519847468   -0.10114563190790    1.56712191858778
H           2.88270706718298   -0.84589051591578   -0.03656640044679
N           0.48287968689261    0.44201062057605   -1.19881732967358
H          -0.02182113474317    1.14413633099777   -1.79867457005522
H           1.34581438385235    0.07563032188760   -1.60105178282450
H           0.67309177428757    0.81261283885594   -0.26112529500699
H          -0.17085887366424   -0.39715961186429   -0.96619130288013
