    26
        -50.46107736  Gyration_radius:  2.47894675457 Dipole_moment: 4.234
 S          -1.58661805279243   -0.43200968543957   -1.52388626179950
O          -1.28513054894275    0.43073383324548   -0.37009982878413
O          -2.91938507878687   -0.34651743941736   -2.01995171543687
O          -0.64915661535789    0.18493406474091   -2.69529476697635
O          -1.06268470257516   -1.76191071966546   -1.27546249818939
H          -0.75160916533160   -2.33160766352665    0.22120807648391
H          -1.29170167099516    0.24340154104490   -3.39384604861156
O          -0.46182927588429   -2.56510730187491    1.13642558336190
H          -0.92268374932424   -3.37514935006318    1.35741039926855
O           1.16620096728460    1.03391011750100    2.30674459525589
H           1.53700766770643    1.14711935840708    3.18191544157379
O           0.53991216920418    2.48972610752390   -0.13748822217742
H           0.82547918868765    2.30215968578422    0.76580208889220
H          -0.27195938246296    1.97280090059107   -0.26249393857944
O           1.95173863940857    1.04739825369599   -1.92259770450174
H           1.60071080562312    1.79673592419098   -1.39239301357531
H           1.23878576230815    0.82233658993459   -2.53318998095618
O          -1.16531628758635   -0.17008233434691    2.29671625055911
H           0.25020043685730    0.66124192371355    2.43033002148717
H          -1.50570993253577    0.18744633707640    1.46161861980837
H          -0.93749957749949   -1.09540050437607    2.08801744470641
N           1.16624621929748   -0.47475773735152    0.06124980832180
H           0.15691544175135   -0.20898185194662   -0.10222506812059
H           1.69768109669310   -0.04439427712675   -0.74961712312623
H           1.45044349995235   -0.02526943109851    0.95297703528913
H           1.22996214526980   -1.48875636119508    0.11813079584182
