    26
        -50.46619312  Gyration_radius:  2.55660947709 Dipole_moment: 3.276
 S          -1.58811644599156    0.60240780869659   -1.55694612400398
O          -0.70275920374532    1.59711688947325   -0.98699630693415
O          -2.76077060883683    0.30843358388632   -0.76834651934802
O          -2.12809395308649    1.20332979695355   -2.92261481426299
O          -0.84783439823465   -0.61358839929022   -1.91834066126342
H          -0.52154189969483   -1.73372368838791   -0.80906605709361
H          -3.03687396634990    0.92526853591930   -2.89253032888978
O          -0.23905950980200   -2.36493525004319   -0.09701041981310
H          -0.39419360749658   -3.24352700498480   -0.44602874462654
O          -0.01950867764520    1.18274286844210    1.53539840429382
H          -0.30601271641305    1.56767137506889    0.68088786717808
O           1.53686488680280    0.47795435099243   -2.01842477660423
H           1.18639231410307    1.35697266481105   -1.82498306715937
H           0.71993991080552   -0.03706560348758   -2.19292728276149
O           2.56461798286339    0.78436660992901    2.72576734876693
H           1.68356022318833    1.15301101513799    2.57038161621552
H           2.90272301742248    1.21100929434530    3.51354099792324
O          -1.85515340767481   -0.69990091788726    1.53309030797428
H          -1.38582634855761   -1.46981058360657    1.18379295122462
H          -0.74771739349144    0.55299366502955    1.76424128637895
H          -2.34861229883253   -0.33290381024247    0.77234559695824
N           1.68700193860192   -0.50795172754051    0.43174735262709
H           1.01969600062650    0.17499323258755    0.91503431401516
H           2.53962239513867   -0.53921078107228    0.98670282093918
H           1.20684250910805   -1.41886716001841    0.37136703145222
H           1.83481325721755   -0.13678677471638   -0.55008277313718
