    26
        -50.44460637  Gyration_radius:  2.51368957656 Dipole_moment: 6.591
 S          -0.98191858055087   -2.15420984832495   -0.91491764626281
O          -2.00309688956704   -1.35001030576603   -0.30496885199059
O          -1.36076575141807   -3.00573841296949   -1.98181285361041
O           0.16378000016974   -1.18102896433677   -1.38586767843483
O          -0.23988427690356   -2.96925195225859    0.16707547769517
H          -0.01050068241394   -2.31595453546217    0.88439359946232
H          -0.21396734032806   -0.27348268067347   -1.57104854669352
O          -0.77684661075013    1.19263117209875   -1.84336083771227
H          -1.23247621590369    1.21256742621371   -2.68617320594869
O           0.55934013922237   -1.21786782552808    1.90427570365299
H           0.93037813206630   -1.63680806552286    2.68300860852275
O           1.15804299050794    2.32819936476268   -0.24640144347340
H           0.55590917028494    1.96158512395860   -0.91763219251956
H           1.05380994482253    3.28082035036706   -0.27776229786893
O          -0.50293630071969    1.39203275470661    1.82358989617328
H           0.18531283781237    1.72912860677241    1.22762914296317
H          -0.29919354113268    0.45560205791156    1.96011053446025
O          -2.49125801796143    1.26079435063175    0.03289032165385
H          -1.91179829090107    1.41941295772239    0.81291791602015
H          -1.50230144526717    1.28245389642936   -1.12152492525695
H          -2.62329234176309    0.29735588166213    0.01955420317161
N           2.42393883365641   -0.30688832116840    0.31569657895050
H           2.07700488628068   -0.74049486040430   -0.53421720543198
H           3.41581933730673   -0.49124762557376    0.39036108707130
H           2.29128020246872    0.69445617718542    0.21226200019491
H           1.33561981098082   -0.86405675242831    1.35192263521307
