    26
        -50.45909910  Gyration_radius:  2.4775141428 Dipole_moment: 8.428
 S          -0.87131254768336    0.07014312864878    2.31843164829384
O          -2.08029849506909    0.20347019749372    1.48498690493134
O          -1.08475587702086   -0.56823918277163    3.57014840679435
O           0.18957805322017   -0.56957770501063    1.50249247071500
O          -0.36222278380117    1.53436221056470    2.57104517774476
H          -0.20612851528758    1.88770431023991    1.67706635997900
H           0.06544484848563   -1.72509951253127    0.50777073044725
O          -0.00095789421690   -2.41886392824428   -0.22208013393472
H           0.16000647532419   -3.25805791139765    0.21110778320955
O           0.45636191786585    2.45642455654423    0.15125692679905
H           0.77340590685559    3.34984798165037    0.29109390743879
O          -0.24942543968738    1.05122531402697   -2.08916530839704
H          -0.07413748167579    1.68841074288386   -1.37246124285970
H           0.52564750438390    0.46530109818154   -2.11723067750298
O           1.66013628467669   -0.94816301896132   -1.78728356133507
H           1.10406924909464   -1.55033880769587   -1.24830423822829
H           2.14259003892375   -1.49121803385218   -2.41134204893578
O           2.27450105593705    0.63888283936421    0.45585297701812
H           1.63076989144962    0.14281866173654    1.00957127853110
H           2.31769600617517    0.14012358052236   -0.37266469345337
H           1.24875240538170    1.84896363361815    0.25973406547835
N          -1.94220672459383   -0.60187334519874   -0.90613709465345
H          -1.35872250220850    0.09512020578183   -1.45331225670784
H          -1.43050735330367   -1.49205979448512   -0.85206689492016
H          -2.02565427587179   -0.22851282566594    0.13408517930157
H          -2.86262972727974   -0.72079439543450   -1.31259564577016
