    26
        -50.47081452  Gyration_radius:  2.45167577849 Dipole_moment: 3.772
 S          -0.79204992404175    0.05795018088450    0.88203534936079
O          -0.12229143052408    1.31360171014947    0.56528553339681
O          -2.08168349093332   -0.06100445431260    0.22873751506445
O           0.07904100878451   -1.07944810675970    0.52497913313159
O          -1.04400374491749   -0.00139908934954    2.40593254845062
H          -0.20041040058639    0.27390577954565    2.85537128651286
H          -0.86487597320973   -2.28626494886806   -1.15151999799569
O          -1.54103810297845   -1.79735301841191   -1.63197923954950
H          -1.93032405188584   -1.21424314445062   -0.93511036393932
O           1.22785976559868    0.47430117333334    3.58781765184023
H           1.19368261751408    0.05449587877697    4.45013413394628
O           1.67260646309812    0.20495221109482   -1.10287811360633
H           1.53986892319551    1.04741355483747   -0.64748213330891
H           1.16352447101697   -0.41611555006687   -0.53038695857600
O          -1.64399614157512    2.06318966029585   -1.41318863539577
H          -1.02851116930470    1.99307120706319   -0.64430707110607
H          -2.42435678369675    1.59362906378310   -1.09431228761875
O           2.35793255212997   -1.18943957714351    1.86006594270962
H           1.78686204748810   -0.10580275429470    3.01843276858586
H           1.49500455147554   -1.29202430943055    1.40088578364334
H           2.96598362475349   -0.84838714255483    1.20017695697068
N          -0.35592520447803    0.24445487846154   -2.80658688004557
H          -0.26481571973133    0.31118080623361   -3.81385289257352
H           0.58029085624723    0.24907896564928   -2.31295901025111
H          -0.91556232237585    1.05683878950938   -2.39340800304087
H          -0.85281244122414   -0.64658177397866   -2.50188302661203
