    26
        -50.45220721  Gyration_radius:  2.42321120113 Dipole_moment: 10.240
 S           0.70815932897852   -1.78129630396102   -0.85257938879734
O          -0.03489838385039   -0.70727659719532   -1.52566162110372
O           1.56185216095779   -2.53266506224044   -1.70369827897660
O           1.62327832314080   -0.99047047182072    0.23025768458931
O          -0.17636632807145   -2.55204212319389    0.01772147561977
H          -1.36451959585640   -1.94258956748992    0.70731155100565
H           1.89751718519180   -0.09792209257391   -0.15004761933430
O          -0.36817734705212    2.15543038329164    0.88857806300163
H          -0.74751383580798    3.01963647936375    1.04929854070187
O          -2.05445463271348   -1.49072214250616    1.30723269235414
H          -2.57217468027152   -2.20547306412582    1.67972995515009
O           1.25776123608612    1.02880808889129   -3.01375675390876
H           0.79583544090699    0.26612619904107   -2.59959942874459
H           0.62898427705456    1.42498122813162   -3.61824440992042
O           2.02703151638192    1.44039622415301   -0.48041508645841
H           1.89571136079001    1.44360378277632   -1.45062984046898
H           1.23779742343890    1.85130492235220   -0.09622736237490
O          -1.96347496908393    0.66668057532092   -0.46779833845203
H          -1.02350078449728    1.65664390891702    0.30182339180515
H          -1.28885787836891    0.15634415888775   -0.98285027318822
H          -2.35288617406895    0.00676052423231    0.12133225758073
N           0.06331973145380   -0.15843519699293    2.16294101316287
H          -0.06214784904617    0.83849397546634    1.87104187942572
H           0.74416719915053   -0.58932013301024    1.46257405206626
H           0.41699939039845   -0.23580955486646    3.11026091508158
H          -0.84944212524147   -0.67118815084889    2.03140493018409
