    26
        -50.46669213  Gyration_radius:  2.48639433334 Dipole_moment: 2.325
 S          -0.03692341694915   -0.82855936626235    1.55530243040351
O           0.36120137892963    0.46233389843252    1.02358751749334
O           0.77398073465487   -1.33504097074411    2.61932362234786
O          -1.49393895332851   -0.55806127768271    2.20655691259955
O          -0.30459565685876   -1.78255838760261    0.47612239106238
H           1.44674319430235   -2.07117869026740    0.28036029310552
H          -1.43016461707533   -0.98873230019817    3.05371342744940
O          -1.06863049793786    2.70504922666132    0.62681755876446
H          -0.51626455535921    1.97151884272855    0.95722694737051
O           2.37322668181300   -1.81495077559524    0.40101092782529
H           2.42871323506545   -1.58967091366333    1.33564387290608
O          -2.94594861808197    0.86639268423159    0.18372961470721
H          -2.44685182953742    1.70122086237752    0.33487486302593
H          -2.75783749015627    0.33269246449099    0.96565650452071
O           2.85934638790850   -0.41984446012691   -1.88321948031990
H           3.78126048827105   -0.15857526608342   -1.88049725674316
H           2.72905014443761   -0.96322560236577   -1.08014616148644
O           0.80350743647721    1.25619279729864   -1.49499104276574
H           1.57470041224193    0.74297984261764   -1.81445997226947
H          -0.61323086412436    3.03862133535938   -0.15040672759227
H           0.80746716848673    1.10545137932326   -0.53014698850017
N          -1.27901455777346   -0.34190822438512   -1.47221185261718
H          -1.60820685073328   -0.80281632613518   -2.31295674858673
H          -2.05794041025359    0.16535237471363   -0.95952591621130
H          -0.89488101171300   -1.03606638724790   -0.77116068348905
H          -0.48476792269706    0.34338322010398   -1.67020406300231
