    26
        -50.46147049  Gyration_radius:  2.59171508815 Dipole_moment: 4.224
 S           0.10684074260684   -0.44531365346064    0.58919099519611
O          -0.80345949701540   -0.18846834750005   -0.51798349441422
O          -0.49525714739074   -0.28356087607559    1.89063929284854
O           0.76668523558808   -1.74959702342336    0.40546631166033
O           1.28243424823939    0.58933539893366    0.44142259087565
O          -2.57172411213871    1.16045460302510    1.00451041179268
H          -2.05247248695177    0.60636734473957    1.61105159045907
H          -2.26587409976178    0.85217898558660    0.13923548640626
O          -0.38544083258963   -3.26201904929990   -1.51209591975742
H           0.00543692498369   -2.81926582303392   -0.73241880210261
H          -1.28459689391379   -3.48394057009916   -1.26569367062127
O          -1.31655108452188    3.46310637681446    1.47683309994027
H          -1.86199291215221    2.67594327346546    1.23516710820478
H          -1.86277222042505    3.99995421464460    2.05290492279380
O           0.06272034782133   -0.98278562572601   -2.86335818123182
H          -0.38917406817154   -0.52370723036754   -2.11622818541873
H           1.43028359457307   -0.95488073262041   -2.26732992619061
H          -0.17854586829365   -1.91995511034031   -2.71394751687966
O           0.73198755659289    2.04459543871498    2.44643428885167
H           0.07084019928062    2.69520493232087    2.11239243532915
H           0.21804002491666    1.27771553282270    2.74215497397764
H           1.17133433225649    1.25352881420806    1.19785022797962
N           2.25896504916334   -0.99295086989244   -1.54223116398245
H           3.04671200376198   -1.54696524239447   -1.86238826558008
H           1.77930447091404   -1.41562172068323   -0.67544368496625
H           2.53627649262801   -0.04935307035491   -1.27613490517479
