    26
        -50.45840277  Gyration_radius:  2.43858109616 Dipole_moment: 7.437
 S          -1.73661644477521   -0.55289344327771    0.89094896184617
O          -1.44708158963920   -0.08433331447299    2.25873036233650
O          -3.01266945352214   -1.15563573731857    0.71189739262186
O          -1.72343664718287    0.73830994186709   -0.01585069136943
O          -0.61049187101419   -1.38408729870716    0.42918565121567
H           0.92452578496222   -1.36694575929055    0.59971799092624
H          -0.89998107289259    1.25687680149820    0.09694907551393
O          -0.15833059586099    0.09678026886981   -2.98527653075134
H           0.00228823953805   -0.32395880604368   -3.83103594917587
O           0.51787391070328    2.21666708503638    0.19243613427584
H           0.32027724229660    3.02593458396547   -0.28082021835127
O           1.90630587393019   -1.26350604229889    0.76983217532755
H           2.24732303052429   -2.15131373560619    0.88480671575356
O          -1.93139688764116   -1.56259187391389   -1.85544005096887
H          -0.87618724943168   -0.42630122052973   -2.56078391663414
H          -1.39727383469881   -1.69562175661046   -1.05231920145877
H          -2.79209660185484   -1.31328164604413   -1.50541869035106
O           1.85853133256726    0.64049546664387   -1.31691285496838
H           1.98920650720909   -0.13722698077636   -0.75528089476194
H           1.16039806913335    0.40813132681156   -1.97138733508051
H           1.08909736016989    1.65819116401662   -0.43170427314408
N           0.94744140964645    0.68640996014983    2.37046818211350
H           1.28212723245451    0.92521534060159    3.29676451399062
H           1.51801099737573   -0.06052808902807    1.92508392624170
H          -0.11617761412670    0.32129169204966    2.39406974677743
H           0.93833289215045    1.50392207241947    1.74133977808486
