    26
        -50.46837078  Gyration_radius:  2.48024238627 Dipole_moment: 2.829
 S          -1.57180810726015   -0.73563266650979   -1.43197815580863
O          -1.82952700608824   -0.27113479434476   -0.06796434595707
O          -0.44546119423159   -1.63924408098840   -1.47886136322773
O          -2.86681427074495   -1.56907051747122   -1.82334982522541
O          -1.48673929610262    0.34147438251874   -2.39626357361301
H          -0.12931104527220    1.10160455205803   -2.01959781239863
H          -2.79217368928026   -1.59331611462416   -2.77113563887581
O           1.59227122701868   -2.15837054547525    0.14479274266212
H           0.96482446494971   -2.14683534377829   -0.60499257752708
O           0.66802381895260    1.60669392964654   -1.71928024219142
H           1.04269025142103    2.00450594533224   -2.50701589283946
O           0.81031526342815    1.23440136817847    2.32039036402865
H           0.88877087311326    1.84136413769194    3.05650856548813
O           2.38120381656961    0.38871617820347    0.08831971930908
H           2.09781252252252   -1.31725469536221    0.05597684991295
H           1.83906034610373    0.79228401546842   -0.61077114956313
H           2.04278615255571    0.74513712468860    0.92080783760990
O          -0.82231582330075    2.15356197603082    0.52212026726524
H          -0.27059290920135    2.26595071139229   -0.26849692197408
H          -1.36882648667387    1.36931934170547    0.32213130401241
H           0.17872375412647    1.66038506051983    1.66694391125222
N          -0.19448778472964   -1.22688999421553    1.75226845856591
H          -0.92121176174741   -0.91777442644216    1.04710917581237
H           0.58906203836848   -1.72294772191287    1.17293982591585
H           0.20607535072792   -0.36947393378126    2.17898332187482
H          -0.60235048523181   -1.83745389852866    2.45041515547947
