    26
        -50.45840274  Gyration_radius:  2.43850528032 Dipole_moment: 7.441
 S          -0.44300752504558    1.94938770262800    0.34378505181014
O           0.80250206240833    2.55541065377761   -0.16182241885497
O          -1.41257132398396    2.86896023529850    0.83157390293622
O          -1.10037845675477    1.22536623213032   -0.89451959485447
O          -0.09425937678213    0.88259793671713    1.29907380399066
H           1.02087737863391   -0.17954994791738    1.41745372303728
H          -0.47327757409582    0.61810147453913   -1.33919584845961
O          -2.38915069431332   -1.79909425982302    0.03356542525110
H          -2.94431021791882   -2.41938202548372    0.50813435037487
O           0.53126977897649   -0.49913600099795   -2.16559197400044
H           0.06025027275153   -0.73453758049438   -2.96600402144220
O           1.78317511097857   -0.82926460548351    1.39815867086903
H           2.06973096335003   -0.92399964755107    2.30737340538580
O          -2.69778809602349    0.44502007976505    1.46285374572498
H          -2.53583212257337   -0.92704399983793    0.46601240572589
H          -1.74244536267224    0.56620691037024    1.60650742635603
H          -2.97557061069126    1.29835780290860    1.11622690296550
O           0.19637966157933   -2.32351958099546   -0.39950130997463
H           0.40568426320707   -1.27603485978565   -1.52643078233338
H           0.69283474572905   -1.98392854976622    0.35918549387691
H          -0.75858635397780   -2.18654237261064   -0.20212464282219
N           2.44169953336219    0.72380983148977   -0.70807307654645
H           1.97267472385340    0.24417777151050   -1.49172793853339
H           1.76928420185364    1.58652813828081   -0.44624679071497
H           2.44834357528576    0.08112546098165    0.10981311612578
H           3.37247148285171    1.03698320037055   -0.95847899588607
