    26
        -50.44103446  Gyration_radius:  2.55181877468 Dipole_moment: 5.556
 S           1.51855628195298    0.17716145172002   -1.95307448277868
O           1.73802321033618    1.39937062306022   -1.23199851993617
O           2.58811671483192   -0.35148055766713   -2.71716576853365
O           1.02176184777169   -0.89281610147527   -0.91491900888229
O           0.26484140414037    0.31880613319314   -2.84603516183083
H          -0.40547021469067    0.89558585017502   -2.36174595395549
H           1.46378984961103   -0.65156536507185   -0.04365756616119
O          -1.31432266323721   -0.24095271392121    1.92786823444362
H          -2.07809429224342    0.16769230343286    2.33646542833571
O           2.13391939769168   -0.28812261629115    1.30210303278906
H           3.07321341366405   -0.47443987197698    1.33764348829062
O          -1.41034095732169    1.80487396223806   -1.57026621289427
H          -1.36716343757405    2.67347916218129   -1.97492526005836
O           0.63000967350223   -1.90319774625070    2.76149157045238
H           1.68351063631447   -0.87156817459853    1.96279674500881
H          -0.13546756965975   -1.31011878331602    2.62137177505697
H           0.45083774546486   -2.69398007636636    2.24898678740672
O          -0.09925402334686    1.95391117105733    0.65447483894095
H          -0.25933827463417    1.17453160778360    1.21079206505131
H           0.75009988256288    1.81374285393553    0.19721678882475
H          -0.97593995298600    1.90463561562340   -0.66706081254893
N          -1.92583906246209   -0.98014375586839   -0.55030630640129
H          -2.21360177077147   -0.13928718216627   -1.03934110475931
H          -2.54325282269079   -1.73084267666884   -0.83236220944196
H          -0.99029214571923   -1.20254333719264   -0.87913407314495
H          -1.59830287052861   -0.55273177554809    1.02078172672218
