    26
        -50.45212785  Gyration_radius:  2.4527948323 Dipole_moment: 5.975
 S          -2.29626433734185   -0.08453421954175   -0.10944790371792
O          -1.40723316696164   -1.14331493594871   -0.54245489118682
O          -3.44594462379070   -0.50694447495541    0.60451667884436
O          -1.46257063908802    0.92166304281836    0.73407302058301
O          -2.66572084039842    0.79025769378278   -1.31235121376183
H          -1.78479028864098    1.18535015739508   -1.60621483577566
H          -1.08783807634029    0.45779608070079    1.55283823083842
O           2.43358682202728   -0.85179401647806   -0.21830617507920
H           3.38686910088320   -0.88678854026773   -0.13625195727676
O          -0.46215556600618   -0.35412907879344    2.70298442558461
H          -1.17700747138939   -0.74523589590108    3.20957171429670
O          -0.35347826072400    1.65071986901118   -2.01350946665721
H          -0.40322071745853    2.07868800845282   -2.87085077252839
O           0.43556073668431   -2.19595171185742    1.12379162256968
H          -0.03469509096595   -1.10936694620163    2.19457209553365
H          -0.27945951042682   -2.04460159282260    0.48014908831623
H           1.24255559074540   -1.87576276075911    0.68298326025535
O           0.60996973902631   -0.73383130572557   -2.27073810332793
H           1.37191880652497   -0.85934088320156   -1.67833578807220
H          -0.15094054702579   -1.09358110040424   -1.77964744836700
H           0.10392581925553    0.76697249727926   -2.16723802428138
N           1.47638165337372    1.44051504159327    0.72128249089129
H           1.10522068536250    1.22897551696357    1.64075483677839
H           2.02961788054658    2.28532635526183    0.79496645782421
H           2.13527067304502    0.03570384371684    0.13882621026994
H           0.68044163908640    1.64320936588178    0.12403644744626
