    26
        -50.45316418  Gyration_radius:  2.76372234056 Dipole_moment: 6.498
 S           2.81806770027349   -0.78191024874489    0.80079599911452
O           2.68744259854088   -0.82150704286952   -0.65691071198495
O           3.77675330720420   -1.68376047910189    1.34813218219989
O           3.38853789191337    0.70611712722322    1.11741691545656
O           1.49864618773463   -0.77833659262290    1.43015575030775
H           1.02958823669171    0.78468953957030    1.36188103234037
H           4.31291677669278    0.51528745410268    1.23634638373150
O           0.74859885122879    1.69381153577454    1.08860060699817
H           1.52664131960827    2.23683356117823    1.22781516081258
O          -2.25005735498545    1.05576728622964   -1.66646067196045
H          -3.01036571910587    1.50059829618039   -2.04209892266677
O          -0.98635560129027   -1.40927980644300    0.63231918434156
H          -0.12893919277021   -1.44783520654512    1.09393059753700
O          -2.64034932883953   -1.62014919751995   -1.51935277594712
H          -2.44511102326501    0.09503329245523   -1.70171260787791
H          -2.05750981749313   -1.79332186796346   -0.75893342644925
H          -3.48365484647229   -2.02205063999744   -1.30575612170809
O          -1.97564890633652    1.02070486578283    1.11604478060065
H          -1.14851843954587    1.46666994352091    1.34164153394286
H          -2.13214353342947    1.21025326041497    0.17502579651559
H          -1.45304031529121   -0.62978979809010    1.01745847721730
N           0.37488230024531    0.15085331966655   -1.10511917119451
H           0.39865134985267    1.00370556336346   -0.51597328461151
H           1.37053520208869   -0.27210940753674   -1.06265542257847
H          -0.25209848709111   -0.53292990562480   -0.61337956811180
H           0.03253084380897    0.35265512757475   -2.03921171598884
