    26
        -50.44437977  Gyration_radius:  2.5527138285 Dipole_moment: 6.730
 S          -2.36990308976756   -1.12191678894505    0.75700231498260
O          -2.24929813302313   -1.96401476322955   -0.39865992950225
O          -2.98236442339331   -1.64415833701945    1.92017581130969
O          -0.92262279313040   -0.60395210970322    1.10396345517516
O          -3.08634261209070    0.19841389676340    0.36621983637698
H          -2.59343907424774    0.60519819774428   -0.39062276376990
H          -0.30434599719501   -1.11035590133638    0.46252948236866
O           0.37351779851787   -1.92866163046685   -0.61710895373593
H          -0.48500141631152   -2.31534530255970   -0.85791517175327
O          -1.59723393178640    1.49267104189285   -1.36366899915432
H          -2.08905488871219    2.23212113444396   -1.72496473461648
O           2.26831995288471    1.28570304449106   -0.13973728761266
H           3.13282188681264    1.69711448562108   -0.15082892487636
O           0.74578751969323    0.15732261104328   -2.17289226473206
H           0.57075366351980   -1.24702163628033   -1.31467623827523
H          -0.11649862156943    0.59319943798606   -2.10531906859672
H           1.34917227170915    0.65449591050059   -1.59550950683577
O          -0.17939545268652    2.07775684477824    0.72964713113996
H          -0.43771760093575    1.26848369747146    1.19272694255554
H           0.74690208486349    1.93897522316409    0.45444091599306
H          -1.06152377220312    1.84801396140052   -0.59344725325427
N           2.29230861932461   -0.90499777843114    1.37693545840173
H           3.12958706986301   -1.27934034359181    1.80568690974143
H           1.93716177514089   -1.59732875026562    0.72410444404219
H           1.59084719576691   -0.79896941100952    2.10056564223955
H           2.33756194895318    0.46659326553780    0.43135277238657
