    26
        -50.45316418  Gyration_radius:  2.76380321824 Dipole_moment: 6.491
 S          -0.83617058054398    2.41528433542347   -1.63164474730915
O          -1.77594242990782    1.31531870051141   -1.85583196554482
O          -0.68998637366116    3.31969360965475   -2.72360813217982
O          -1.50542947031937    3.28352904878732   -0.43243496053911
O           0.40079999563219    1.91414868553808   -1.03508246620593
H           0.05470475048327    1.79369496283119    0.55624288927094
H          -1.90494960052437    3.98827802958495   -0.93118262117986
O           1.56323158255707   -0.49639062358157   -0.81768819143098
H           1.38918692515358    0.42107488618869   -1.09633455827276
O          -0.22024738132862   -2.56373145279052    1.52896623844002
H          -0.19333754482831   -3.28634071426811    2.15676792456458
O          -0.30684903801943    1.55759270570230    1.44719936591137
H          -0.87615650986273    2.29414400358277    1.67731461618055
O           1.59789603634517   -0.46356505410547    1.84977101330565
H           0.95517396321142   -1.18941714293559    1.92722530979794
H           1.82698834087971   -0.43350883282123    0.13110713829196
H           1.09529287723841    0.35048039168808    1.98639208868431
O           1.11119731464475   -3.17948092930701   -0.74761231299491
H           0.22833708136523   -2.88422078245159    0.71759484085965
H           1.36378895742588   -2.27309100722815   -0.99779155937711
H           1.91816842266333   -3.69596467526942   -0.76698368145616
N          -1.06373742149644   -0.46893662554668   -0.18141313735502
H          -1.59421151403471   -1.31962395829612   -0.02208151903036
H          -0.08525743740394   -0.68763643510010   -0.49314724457819
H          -1.47534333431565    0.19500333020423   -0.93095233745801
H          -0.97714761139766    0.09366552395486    0.68520800964903
