    26
        -50.45123063  Gyration_radius:  2.47051825199 Dipole_moment: 4.662
 S          -2.12954826435997   -0.78164404670127    0.77527643823472
O          -1.10865310442343    0.10823680145006    1.28244599035584
O          -3.41624844300200   -0.65199565943965    1.35095026178825
O          -2.18266649020536   -0.60918664340865   -0.77257414360831
O          -1.63425837285765   -2.23355095951420    0.89878093659527
H          -0.82126615929022   -2.28468412510186    0.31002832348797
H          -1.87335483149527    0.29740712739098   -1.06133180881104
O           0.37586707585817   -2.30989620223027   -0.69865962133622
H           0.12927454428846   -2.90927001996464   -1.40591408130862
O          -1.32912392183424    1.69752044189761   -1.56884720769582
H          -2.04594369543708    2.29401699613895   -1.78977741784582
O           2.33291545163780    1.23320923571534    0.05967213565061
H           3.27378375130597    1.40489982558713    0.10186367001250
O           0.89171908791191   -0.03242877125380   -1.89234942550580
H           0.55931972407343   -1.43331391362951   -1.14173305251286
H           0.11876674184440    0.52794885117183   -2.03222131250247
H           1.47702996115651    0.46577390637232   -1.29111411823115
O          -0.07648387534436    2.48278264505909    0.53993501706017
H          -0.45713119229628    1.74832830452599    1.05253590858949
H           0.85181419845246    2.23144672972201    0.39108737134087
H          -0.84487007840463    2.10268585064545   -0.78014553394831
N           1.59981465979916   -0.76240008112489    1.62348612251969
H           1.92333434395936   -0.94530565828383    2.56465713090262
H           1.63010179601151   -1.63302614274066    1.10550708698085
H           0.61810268288227   -0.49061958605109    1.67816144721170
H           2.13770437974888    0.48306508376603    0.70027988258750
