    26
        -50.44253069  Gyration_radius:  2.54246518774 Dipole_moment: 6.374
 S          -2.43715090447553   -0.49160729594789    0.91114299757159
O          -2.41093170052591   -1.91319618571679    1.06323732518030
O          -3.25632104706365    0.28376514105783    1.76880073285251
O          -0.96252941554669    0.03753824386196    1.04392664884519
O          -2.74539867363822   -0.18804662459098   -0.58636360152714
H          -2.29496588164547    0.65251981786068   -0.87096468981663
H          -0.46244923098152   -0.61970432242620    0.47022254713088
O          -0.12097129161737   -1.92511733012706   -0.35323061372330
H          -0.88649783585527   -2.37377986335411    0.04053649237993
O          -1.30232439589251    1.79261964422774   -1.47749355320621
H          -1.68090036491543    2.13788759062628   -2.28800966182042
O           2.33689411461085    0.93921054641838   -0.04267067914390
H           3.06968944504929    1.51316353982399   -0.27094710444322
O           0.62911956158465    0.14167060388182   -2.02464436725365
H           0.31145548376720   -0.72188941828273   -1.72325336677516
H          -0.55158557386579    1.18255925171198   -1.75243212374859
H           1.34407645194411    0.37833937540666   -1.40139788134864
O           0.30338962855917    2.46299096876938    0.74106348611137
H          -0.16895156510698    1.82633992059666    1.29200025958907
H           1.63024079650668    1.53082423273632    0.32108072271781
H          -0.25194708568660    2.55050827646365   -0.04725358128086
N           2.09006890446654   -1.86145925274270    1.11341331294353
H           2.90053926119273   -2.45233324090814    0.97932357781892
H           0.69320032345588   -2.13938687147321    0.17883312287456
H           1.89102506435336   -1.82215222415000    2.10510291665823
H           2.33322595131270   -0.92126452367945    0.80997710142501
