    26
        -50.44947486  Gyration_radius:  2.50086282652 Dipole_moment: 4.981
 S           1.28086165581973   -1.24277928381333   -0.40369634745753
O           0.77442664055409   -0.43942414080482   -1.49253933944355
O           2.69152383842072   -1.23077883642677   -0.22020332020339
O           0.57759147408504   -0.78123123898844    0.89348909930937
O           0.76809679740980   -2.68069641697172   -0.57705431663685
H          -0.23926593072659   -2.63108299781383   -0.57093474676150
H           1.31256157370973   -0.29918636334041    1.46605819949297
O           2.48348542678758    0.38236299445414    1.97433153533335
H           3.10760372714117   -0.04414429356281    1.37016440318669
O          -0.13798905972990    1.96589982808267   -0.59278317858434
H           0.27200877658578    1.19677076661206   -1.02132290426155
O          -1.79240689801556   -2.44595084432025   -0.66493614793332
H          -2.14346143028296   -3.18675356506375   -1.16436740074439
O          -1.79163234747485   -0.32383945969348   -2.21520997874014
H          -0.81535151294114   -0.33424944151227   -2.18694399735111
H          -1.90339747206186   -1.64382657532739   -1.24156969210899
H          -2.04514457889144    0.53084779358147   -1.85474518827066
O           1.90252904154313    2.72380357660673    0.92599435816901
H           2.36067271815773    1.31128664482493    1.64399369236310
H           1.15561106144151    2.51768216770692    0.31035618644429
H           1.61494637089774    3.46424578178517    1.46186322165434
N          -2.05238536979094    0.58961560974979    0.86858115405410
H          -2.86583406476892    0.10128480452449    0.51389025884251
H          -0.85854825985172    1.60231333287627   -0.03760611823049
H          -2.31386965146539    1.00923029297877    1.75236789293903
H          -1.34263253654493   -0.11140015616699    1.06282267493429
