    26
        -50.45683759  Gyration_radius:  2.60315885886 Dipole_moment: 6.457
 S          -2.40248491492030   -1.17457174090804   -0.15448920507603
O          -1.56796020006773   -1.78615231536342    0.86393753851851
O          -3.43569003153470   -2.00042435310947   -0.68508741936670
O          -3.13730314845488    0.07281797148658    0.57239697165750
O          -1.56476972560010   -0.48840472432655   -1.15418381076088
H          -0.12004846316096   -1.25169029398277   -0.96300718821856
H          -3.95186607134598   -0.31766012422160    0.87137105732560
O           0.72322008839511   -1.70163578178179   -0.72503587597189
H           0.43810804954602   -2.45389485268185   -0.19834874185365
O          -0.45207702505094    0.08617996091832    2.33962689234448
H          -0.91633211825292   -0.68922627214301    1.94789669948137
O           1.84556680271745    2.00566150996332   -0.64656570459373
H           2.20329865240774    2.79238412652011   -1.05926442363339
O           2.50077672403205   -0.13500365391706   -2.07904413010236
H           1.83682450297334   -0.78687355820174   -1.79509820508464
H           2.06672899902154    1.25172316970769   -1.24764145301499
H           3.35462625301698   -0.51604653883512   -1.86393612662115
O           1.98333354847080   -0.22204877003902    1.23704567477119
H           1.60887344506401   -0.79640339271336    0.54229344405832
H           2.15188190970834    0.62861877628999    0.81818933009039
H           0.50298371149813   -0.10712087247280    2.23051827444512
N          -0.73102912855094    1.55176300727199    0.22230567410298
H          -0.64597424549638    1.05863119400832    1.18886828084578
H           0.20452393416889    1.85357519524132   -0.10706418083898
H          -1.10980992620807    0.80147273895808   -0.42680117597198
H          -1.38540163237648    2.32432959432477    0.27111780348884
