    26
        -50.45123019  Gyration_radius:  2.47042689313 Dipole_moment: 4.655
 S          -1.87164071607270   -0.58242263594820    1.37999165729791
O          -0.80009383020240    0.38594277535442    1.45152897573774
O          -3.00141376965541   -0.32847169975398    2.19413379683379
O          -2.27603749022620   -0.73274535596173   -0.11738397691325
O          -1.30306797409962   -1.98086221205849    1.67963475981148
H          -0.64385930720064   -2.16137469075109    0.94295604613270
H          -2.07115168892529    0.09111873421318   -0.64680358540428
O           0.29466296189131   -2.40805639483356   -0.28595680674184
H          -0.08400839732252   -3.13645640005239   -0.78214378470284
O          -1.70534630534878    1.34985747582748   -1.53884318771678
H          -2.47488472252172    1.89497716560827   -1.70958685223300
O           2.24055431655447    1.19370074567821   -0.71837495929187
H           3.16071685816439    1.36011679307724   -0.92374175344305
O           0.44956518923349   -0.43016503669394   -2.00065274422197
H           0.34383883889227   -1.64354129924681   -0.92756656640170
H          -0.35540966135864    0.09709466436248   -2.07201537238295
H           1.13532520997080    0.17463654868400   -1.65978296819680
O          -0.04429863778387    2.54342486866358    0.02640610607770
H          -0.27451410845756    1.93621486833235    0.75112638526018
H           0.83601847305011    2.25597700281271   -0.27280424246619
H          -1.07280022369675    1.90477788444755   -0.97986437713722
N           1.94418698281865   -0.42937987552499    1.34149717174849
H           1.88871010126272   -1.38818811668063    1.01766554244433
H           2.21884744878077    0.59328342246378    0.08800694249457
H           0.99050930030230   -0.14057241494795    1.56000250958980
H           2.47559115195671   -0.41888682708424    2.20257127385593
