    26
        -50.44947489  Gyration_radius:  2.5008666782 Dipole_moment: 4.979
 S          -1.17798606950594   -0.98580620302693   -0.99417123750656
O          -1.09703543596700   -1.28214323130248    0.41769108904631
O          -2.47248673727741   -0.67485073251851   -1.49552707745288
O          -0.20513059002585    0.17856323012113   -1.29119752081019
O          -0.55965365353439   -2.15521776051780   -1.77571467853155
H           0.39563982400748   -2.23869106222202   -1.46326963518247
H          -0.80606259783420    1.00891410687272   -1.51405735351696
O           1.82645830267783   -2.36718888885915   -0.83726608971968
H           2.11421309994537   -3.27547104969167   -0.95415508777155
O          -0.27766444668589    0.89998231200732    1.83021728371817
H          -0.69150463981668    0.11513336453219    1.43523635503154
O          -1.86475935055096    1.98231512807764   -1.67428137059474
H          -2.57428931147930    1.33139911940885   -1.77085923252113
O           1.13359481275620   -2.03190351522551    1.67552907296717
H           1.67315324037590   -2.24694991942588    0.13753740424795
H           1.36938043430493   -1.21888990813196    2.13174387831819
H           0.21243804852507   -1.90096229444534    1.37812038758407
O          -1.89385183493276    2.75759655327934    0.83915181405096
H          -1.95487170262520    2.36467665901214   -0.76174784007837
H          -1.32776288618420    2.08331687425517    1.29112343274641
H          -1.56408286415945    3.61475043904557    1.11233527594361
N           2.12255703394065    0.78141283690708    0.44480714401581
H           2.86055283587294    0.09506678702981    0.54606243780865
H           0.60792224890787    0.96436185540110    1.41641301626796
H           2.56371817445351    1.67345430742477    0.25728233744706
H           1.58751406480236    0.52713098201838   -0.38100382552169
