    26
        -50.45288196  Gyration_radius:  2.71715674993 Dipole_moment: 5.365
 S           0.32683002973250   -2.12839982558114   -1.89774659366772
O          -0.77365656193370   -2.44540061580725   -0.98097710259169
O          -0.09049641598122   -1.49361920818932   -3.11148404580908
O           1.36125015793002   -1.36448301968843   -1.18391340101278
O           0.98694494427952   -3.52225522651081   -2.27285882166328
H           1.13032346175764   -3.94714704158056   -1.43152447220722
H           1.00319942449687    0.18311650205149   -1.79260621526932
O           0.44183503027246    0.94160501281400   -2.07110092285691
H           0.12111874769819    0.65553791545226   -2.93408032099869
O          -1.50446275957770    2.17985450269646    1.51537454283958
H          -1.75553372534711    2.99730658552158    1.94711634505411
O           1.23827692509355   -0.17755308855088    1.20819008983221
H           1.48968257874308   -0.72012274369974    0.43360116134904
O          -0.52915662836315    0.30590552903301    3.23648661596338
H          -0.84729451205771   -0.50284311378859    3.63936205632693
H           0.26545231234347    0.07056066610057    2.72783735393386
H          -1.20709618846301    1.57830089982107    2.22579291346352
O           1.05628470787930    2.33978695769566    0.31943275805394
H           0.98370684713866    2.18331807997134   -0.63001660323025
H           0.15021702417485    2.45631537552926    0.64965841905903
H           1.46460682552650    0.74891063850371    0.96745715533607
N          -1.10541162036884   -0.05749133630202   -0.10357755175026
H          -0.73877016292329    0.49253944257620   -0.91467492442868
H          -1.94959554293323    0.36035433515615    0.27932045210688
H          -1.18850658875375   -1.07156945792953   -0.43385130595403
H          -0.32974831034120   -0.06252776517679    0.60878243809906
