    26
        -50.46245492  Gyration_radius:  2.43496275823 Dipole_moment: 5.465
 S          -0.36249078319877    0.11133544625232    0.98324735030784
O           0.30251692756790   -1.03679338122630    1.59082870187789
O          -1.72972880588527   -0.16488711441506    0.60117251405058
O          -0.23758769028480    1.30421705860894    1.82703471525953
O           0.47370604730575    0.43967859950042   -0.29048756922655
O          -1.78800735521839   -1.80390944703900   -1.56124045028463
H          -0.98113951096055   -2.31264370451947   -1.36662979166314
H          -1.98864114162461   -1.34612699342119   -0.72666199532786
O           2.79701633203302   -0.57334007309249    1.02376350776265
H           1.90841685695490   -0.85054336416685    1.36102119779473
H           2.81092222720649   -0.87818025179881    0.11197180664534
O           0.44886241140430   -2.83803324692788   -0.34944865438765
H           0.33688973895359   -3.70673337544190    0.04087431754694
H           0.37840172229238   -2.19859070893847    0.39005663025959
O          -2.79330862390962    1.76195425429089   -0.88515920483768
H          -3.72482950065746    1.56203387099404   -0.99459871356923
H          -2.46149555253103    1.13866685244776   -0.20601743022534
O          -0.90519519228853    0.54467771618820   -2.37329051947248
H          -0.08048396071805    0.49274201852726   -1.17790634081838
H          -1.27163980468594   -0.37443202455968   -2.32118580624648
H          -1.62591099394253    1.13012494262055   -2.06165992397087
N           2.13157231144786    1.95225352059678    1.27921473993195
H           1.07409421706918    1.74707735310055    1.58204927308148
H           2.54467560832268    0.97321810012440    1.14879938289077
H           2.11449304297885    2.44082175264936    0.38883310595247
H           2.62889149236841    2.48541219964731    1.98541914667003
