    26
        -50.45319308  Gyration_radius:  2.55925251675 Dipole_moment: 7.128
 S          -1.99779068901647   -1.66124875536469    0.32899541108439
O          -1.34646123623090   -2.55369506077910    1.28475674809831
O          -3.28000954855495   -2.05322937691239   -0.14622484257842
O          -2.18088089672281   -0.31746799800938    1.20245965975977
O          -1.05375485028777   -1.27398896789662   -0.72966414778424
H           0.53180460750798   -1.44245347586735   -0.78874271764788
H          -2.72906640632856    0.25737528941477    0.67062574174409
O           1.51687955124313   -1.53914461270990   -0.67160356117145
H           1.77415394533190   -2.28181349376797   -1.21892352871012
O           0.62951466700873    2.09709415166475   -2.59601309126272
H           0.46968941336937    2.98087626791815   -2.92754140822264
O           0.41541104706879    1.53629158155147    1.23719757116419
H           0.62132607243163    2.31775711340837    1.75035647099784
O           2.18334005983887    1.16060852011057   -0.61301532756167
H           2.11698478299391    0.20295939892119   -0.75648738198812
H           1.76679401462725    1.56074944777554   -1.40509281820551
H           1.13623467227357    1.44971558075657    0.53766888764498
O          -1.35605205318378    1.34667515030984   -0.96118618696461
H          -0.90825454299039    1.54557824590210   -0.12414911775080
H          -0.18827610773351    1.82658443000027   -2.11611434005949
H          -1.29455854459299    0.37365502486900   -1.04415022523448
N           0.65254241425530   -1.09824855849278    1.84525842601564
H           1.09972237432288   -1.28995858651302    2.73534605812255
H          -0.23810539996010   -1.72567694929556    1.70074340951762
H           0.38851932861769   -0.09206277650668    1.76253056432607
H           1.27029330471550   -1.32693159048367    1.04296976667237
