    26
        -50.45729993  Gyration_radius:  2.58919729134 Dipole_moment: 4.939
 S          -0.01398250441814   -2.10080631572829   -1.27832526540599
O           0.56222690707742   -1.66960793314302   -0.00020065259432
O          -0.05887789486486   -3.51251600630244   -1.47813407639050
O          -1.57880620459530   -1.66587873262572   -1.12918384802267
O           0.49827420915435   -1.30782924030317   -2.37615960079712
H           0.72839761391770    0.22768985409957   -2.15148676864311
H          -1.94629656457042   -2.44668575024208   -1.52706314808327
O           0.81866366041875    1.20920279711591   -1.98557942057448
H           1.13960154665579    1.58010654904636   -2.80902515195320
O          -2.08103040893584    1.63097117703671    1.15308158527887
H          -1.71267109752417    2.50694238884529    1.28082754862836
O           1.79729483883648    0.95223750297074    2.54626419945821
H           2.49442483765779    0.59451945145617    3.09760827409138
O           2.39224107121914    0.30329537766674    0.08945313925478
H           2.10439337657967    0.82035568786272    1.60537351181795
H           1.88812185811779   -0.53066001750906    0.02727782640950
H           1.99910083979340    0.86366367672598   -0.59910643203412
O          -1.83564152031520    1.11241750081242   -1.39472419391835
H          -2.10092837197366    1.48215216568571    0.16787183847401
H          -0.90921521851428    1.31865831998521   -1.62672530002503
H          -1.89129910128870    0.14704839653946   -1.41585180137470
N          -0.47274522972113   -0.31259811849854    1.97455964152390
H           0.38836974007542    0.17051754754859    2.34768613750898
H          -0.15706905093797   -0.89410412069552    1.14416184358314
H          -0.89398961042034   -0.91130700157628    2.67605259168749
H          -1.15855773139691    0.43221484319774    1.66134755217014
