    26
        -50.45288198  Gyration_radius:  2.71832733694 Dipole_moment: 5.396
 S           2.05527447409112   -1.54224384248436   -1.28466917182919
O           1.80711540598527   -0.31417557771028   -2.04777527501197
O           3.12592241469719   -1.43487063787917   -0.33997725680340
O           0.80134601484114   -2.00611864791092   -0.67179276719457
O           2.45479201292438   -2.64057929333771   -2.35856402541656
H           1.77047475672260   -2.58162205873834   -3.01971693347420
H           1.08927461926358   -1.48700719589425    0.92232304401964
O          -1.52808803432368   -0.72270307557005   -0.40225934539789
H          -0.82307856207599   -1.36979057464744   -0.60680254511448
O           1.37627272281313   -0.88070035180788    1.64200823240022
H           2.33514431424985   -0.97929924846237    1.62514814387216
O          -1.23296784225748    2.47120370833709    1.29724988935705
H          -1.70932709516354    3.06716187477329    1.87644785718237
O          -1.31759388102058   -0.20474220792986    2.21411721160228
H          -1.64913684808239   -0.76279091662605    0.57319131135824
H          -0.42140485586091   -0.52099734773236    2.38159875764624
H          -1.25076529703589    0.75527027450590    2.08143702386673
O          -2.67624123248553    1.71078752373345   -0.88595949425960
H          -2.70935528173107    1.92265223851915   -1.81954865830204
H          -2.50501933947541    0.75572810762266   -0.82218078830738
H          -1.82554039364613    2.29809490764851    0.53995671624886
N           0.57405116789335    0.93782273684744   -0.17856758216664
H          -0.37255547631820    0.49708568939636   -0.31601691694832
H           0.98353450686676    0.46866077734989    0.66219053588051
H           1.15512535294570    0.62100342263138   -1.01913643219119
H           0.49274634618869    1.94216974535962   -0.04270152097617
