    26
        -50.46846775  Gyration_radius:  2.39953763204 Dipole_moment: 5.639
 S          -0.94038614525226   -1.19458001321695   -1.00049586015878
O          -1.60100182799269   -0.70017940967659    0.23202165079037
O          -1.09906754862112   -2.61461198536219   -1.16066645211954
O          -1.63008759604501   -0.46292234343492   -2.19121674001820
O           0.46082318355611   -0.78991254457376   -0.98579931223010
H           1.72671130052235   -2.75853616321360   -0.40865120661750
H          -1.37132249497965    0.48663172745826   -2.11246489258802
O           1.10297551350898   -3.14949648302070    0.21067913869448
H           0.25300338094736   -3.15118005796690   -0.28819029370834
O          -1.03731825924331    2.10365229593925   -1.79835315891663
H          -1.74159617100173    2.62170693923660   -2.19187364636614
O           1.35027299783173    1.33606274499114    1.61825974366939
H           2.09608070250804    1.75631258593303    2.04814692445385
O           1.62516704226807    1.53821249453298   -0.95811565683575
H           1.30046545292891    0.61750164415802   -1.08405065209561
H           0.95288900514994    2.07832737767835   -1.38973117485029
H           1.50263284007588    1.44758585349226    0.63206500916937
O          -1.34576816677979    1.86956241129941    0.78380427521547
H          -1.58701883957296    0.92623675237340    0.65416900322176
H          -0.48627799736117    1.85711031951021    1.22681642319045
H          -1.18444800558285    2.13000590360379   -0.81119298186403
N           0.34933192576568   -1.19228129560918    1.83167564389195
H           0.15356980161010   -1.47406205123633    2.78660603185429
H           0.80552125635284   -1.97544841283422    1.27632711843725
H          -0.55369212010466   -0.99874941709834    1.28152138837325
H           0.89854074950459   -0.30694887294968    1.79870967740401
