    26
        -50.44126219  Gyration_radius:  2.5887179577 Dipole_moment: 0.772
 S          -1.77430862041790   -0.56774094019347    1.61721482362598
O          -0.36588440941308   -0.49544042279671    1.91992574965594
O          -2.37536280501674    0.62580573910946    1.12682253882043
O          -2.04849596255092   -1.75963654265558    0.72742017414379
O          -2.50073389535962   -0.97270326180039    2.95375687573775
H          -1.98473185325443   -1.68215509843890    3.32968861232892
H          -2.12021176161372   -1.47460077025245   -0.33021057295595
O           1.46542483496692   -1.50075343960163    0.12710681851333
H           0.83859871515899   -1.26656787882693    0.82709494781808
O          -2.13132718543883   -1.16396755590760   -1.64770439938395
H          -2.35431723699596   -1.96306973133694   -2.13223737112906
O           0.70472854573953    1.91117311908959   -1.62702064627442
H           0.14192994921699    2.51037225756381   -2.11899023633453
O           0.30256213350906   -0.73520167182027   -2.10815009584629
H           0.77222779136893   -1.14030413161162   -1.33269027547713
H          -1.13515962069166   -0.95825926901177   -1.87726740972047
H           0.48758414926462    0.22295936433128   -2.04081910806732
O          -0.08128017220230    2.01654445198710    0.91901981458469
H          -1.04468579753644    1.91462593093046    0.90355926354809
H           0.21191191235156    1.21149548185509    1.36905599470735
H           0.43453233299828    1.99292265985817   -0.68060312784369
N           3.00776629384061    0.76150826274832    0.02357664246806
H           2.54512750549124    1.21705672076220   -0.75608095834302
H           2.14305053391539   -0.78673505436408    0.13922088822848
H           4.00041813780790    0.74092279345264   -0.17195230592807
H           2.86063647503400    1.34174899691221    0.84026337319158
