    26
        -50.44280111  Gyration_radius:  2.66898161975 Dipole_moment: 6.737
 S          -2.08574807681090    1.53907273698559   -1.31049063433427
O          -0.66558114104297    1.69279628211705   -1.07496005762217
O          -2.63787479685433    2.26115061038434   -2.39334242235163
O          -2.37263849407126    0.02066486307558   -1.45498647112570
O          -2.85331188928423    1.89430990138163   -0.00725344357652
H          -2.37357197591686    1.44227902926390    0.71895767034411
H          -1.54537161556660   -0.53625333584930   -1.61120300136996
O           2.22199160025631   -1.06567483252323    1.31206814053799
H           2.79614636141196   -1.77323272675704    1.60713117158252
O          -0.29078688783429   -1.42500330297130   -1.89848978539075
H          -0.29894916869912   -1.65609716475575   -2.82842389375151
O          -0.97467748083371    0.59348972542599    1.29481690158434
H          -0.58773942576215    0.96369052605180    0.47932405639571
O           1.12541329355580    0.82450059434039    2.95005658844881
H          -0.32781880238016    0.80949676213721    2.00278378475443
H           1.06764626714677    0.40796888722963    3.81125084131255
H           1.65201555852460    0.22573367404058    2.38306138242764
O          -0.20468781414378   -1.98591127461630    0.84699611759434
H           1.33517850887863   -1.48302437821384    1.13713583392252
H          -0.67552305245552   -1.16385753998128    1.08440221684158
H          -0.32145059341054   -2.07802953408595   -0.10736645258838
N           1.71999054529227    0.13194998571743   -1.39211744895098
H           1.16784647907758    0.97997478936928   -1.29701481697207
H           2.11129766393883   -0.09711703594676   -0.48252928850800
H           0.53640394422518   -0.83798599160831   -1.73864946347711
H           2.48180099276411    0.31510873979703   -2.03115754570842
