    26
        -50.45288192  Gyration_radius:  2.71737794924 Dipole_moment: 5.366
 S          -2.26409369904881    1.27621036381756    1.21894559884935
O          -1.14043981224927    1.25313000780265    2.16175995933811
O          -2.35716640047923    2.48237095923022    0.45292964236501
O          -2.22908802814658    0.07036187457294    0.37755707589741
O          -3.57276350656766    1.15597050157116    2.10899763831772
H          -3.40092994167427    0.41098705251581    2.67843769115927
H          -1.60452177350466    0.76730106595579   -1.04305590547817
O          -1.02100059062655    1.33544478737264   -1.59503033548297
H          -1.41137989818146    2.20899371410884   -1.47697614475807
O          -0.26595675766478   -1.71675746406646    0.06416249426605
H          -1.12105768614082   -1.27081739165433    0.23008821445783
O           2.88847709942921   -0.24008551283610   -0.95285279058242
H           3.67955638910897   -0.41943093312094   -1.46247970301500
O           0.52771420159410   -0.91414483099389   -2.36165462754318
H           1.39144193420905   -0.60338790014925   -2.04379922751049
H          -0.12829676312084   -1.67214712364055   -0.90884496333086
H          -0.02195237819103   -0.12878624041235   -2.47263210484235
O           2.30633338710728   -2.19163611015605    0.85740264943454
H           1.36540559701634   -2.29251324791323    0.63368254073682
H           2.79988121232534   -0.97975148538131   -0.32033609463151
H           2.37707754272566   -2.30471893221713    1.80594853960063
N           0.68012965997458    0.77444631641374    0.41857907960870
H           0.08533641468949    1.08514565261941    1.25164255568029
H           1.66943330277565    1.00497381082977    0.46286242195875
H           0.53742291858622   -0.26687714194859    0.35139469015936
H           0.23043758589611    1.17571821786967   -0.43672891454164
