    26
        -50.45454406  Gyration_radius:  2.42351971701 Dipole_moment: 8.714
 S           1.78394299614444   -1.06277973526466   -1.16526595723010
O           0.36295461777471   -0.70257643402552   -1.45142572950779
O           2.64955696197929   -0.57989406938610   -2.19410881929918
O           2.13048947171692   -0.25278678138319    0.16947393969701
O           1.87705470916589   -2.44177515557185   -0.76743284894366
H           0.94681043458211   -2.21567412436198    0.52658798701443
H           2.07364691446535    0.69315795218796   -0.00412931142440
O           0.39045168024288   -2.08017231940839    1.33587082302235
H           0.88620230362166   -2.48144532720707    2.05168975303655
O          -2.54742900787489    0.62427863644397    0.29847236976441
H          -3.50150734771367    0.65733985608438    0.37023671035849
O           1.18911402196183    2.30974987807003    0.55147448295557
H           1.70251927516145    2.88271270438846    1.12147032967790
O          -1.77217861143306   -1.75952461250576   -0.30552160851761
H          -2.31399777968250   -0.33230891864934    0.06884140773499
H          -1.02855654903138   -1.51140152523444   -0.89598422426355
H          -1.31597428935864   -2.13723276951453    0.46080011869846
O          -0.20771491304056    0.56248270181577    1.89824829811827
H           0.70663766918350    1.67129113737908    1.15321888108845
H          -1.10217835203469    0.60579835768858    1.53209416248472
H           0.11740172731914   -0.33893397407130    1.69970888630724
N          -0.61942893717254    1.61626627153562   -1.30863244470426
H          -0.82259908761550    2.05910216906481   -2.19673019526032
H           0.03541462463399    2.17203216483880   -0.73557116058873
H          -1.48199303589848    1.41626944580557   -0.75848725199585
H          -0.13863950710967    0.62602447128918   -1.45489861823707
