    26
        -50.45288072  Gyration_radius:  2.7170617633 Dipole_moment: 5.354
 S          -0.26172719159048   -0.26604008323154   -2.84610831824898
O          -0.12676290131680    1.15063915505653   -2.49064561442653
O           0.97563505115635   -0.90118776364505   -3.18646821492956
O          -0.99180188812963   -0.97536162535030   -1.78432387257464
O          -1.20089515132090   -0.30137629342864   -4.12505507002706
H          -1.96177207432728    0.21405878574791   -3.87169136617259
H           0.32773533494462   -1.74922620845397   -1.03996577538133
O           1.31294668523114    0.87798538998151    2.61174917182454
H           1.65509670226148    0.90960225553211    3.50591997059125
O          -1.58655231081092   -0.15894971196365    0.69064701699249
H          -1.61761228565653   -0.50142551737340   -0.22548600994086
O           1.23395353644583   -1.84295352197473   -0.66860951441324
H           1.77330892020688   -1.94034914611290   -1.46180670279802
O           0.22262820136797   -1.65415262356454    1.97479003649094
H           0.69642943173385   -2.03465937541317    1.22520528378102
H           0.74072821716442   -0.88616411931347    2.26717999448356
H          -1.17101226532027   -0.87207376124387    1.22585911901091
O          -1.17796585733306    1.95682697521636    2.37283486240477
H          -1.58218008060206    1.22854316402247    1.87115736176279
H           0.44194543490738    1.31999877684111    2.63917755292390
H          -1.55913587947474    2.76821441002124    2.03520625819091
N           0.80169993678004    0.76248171607804   -0.13076895218077
H           1.39426987591635    1.37756811808647    0.42086630414599
H           0.54211433333223    1.10961772583310   -1.10882522817432
H           1.23668334433222   -0.18117826219535   -0.25360912180550
H          -0.11775711984238    0.58956157087605    0.35277084842530
