    26
        -50.44619982  Gyration_radius:  2.5531994911 Dipole_moment: 7.613
 S          -1.06815392687179   -0.83942154024942   -2.00089720122426
O          -1.68798098809578    0.25903751682929   -1.29441911329383
O          -1.36123506439319   -0.96427052727204   -3.37870749948771
O           0.47284277208459   -0.71825987904242   -1.75761628378559
O          -1.38989965335363   -2.16434516604872   -1.28484867598892
H          -1.37135344701043   -2.08784084813541   -0.27686218112483
H           0.63996278219733    0.25951097819544   -1.98345147387961
O           0.44666698903417    1.76260221803569   -2.19744997887790
H          -0.51020131881250    1.76784220722766   -2.07173176701761
O          -1.44567036798625   -2.00638429669600    1.28425790300128
H          -2.28127398143182   -2.40134186919192    1.54072916668104
O           1.01617100876757    1.02284952809059    1.88488631980049
H           1.21867785095488    1.02908383888282    2.82112949758242
O           1.48342518743130    2.90832196474017   -0.01610030927229
H           1.29097218866848    2.28247253938638    0.70765694759621
H           2.43520660151789    3.01713827679289   -0.04418987490901
H           0.82561095016975    2.26443025506961   -1.43667878038802
O          -1.65407293824989    0.55766144337480    1.36816327565003
H          -0.75984877527447    0.89641429808394    1.55475151577883
H          -1.77389637206586    0.62533897087708    0.40166120260187
H          -1.55101720207763   -1.01095816875896    1.41937501035450
N           1.46010444438868   -1.39849486258948    0.93766358866204
H           1.24717626551248    0.10601009768033    1.53888270350730
H           1.32130389515879   -1.27953711276735   -0.06275177411627
H           2.31206046952621   -1.92787951391710    1.07281370932607
H           0.68442264022010   -1.95998033862684    1.27373408278838
