    26
        -50.46911920  Gyration_radius:  2.40721217523 Dipole_moment: 4.346
 S           0.38113751080281   -1.67672848904688   -0.40065063534348
O           0.92061035107584   -2.84183887695195    0.24856339779270
O          -0.31402990613189   -1.91909718370426   -1.65591104277730
O          -0.76316010664042   -1.08412473485979    0.53628976879459
O           1.36676818103745   -0.60076084489311   -0.52615674285651
H           1.07460182829717    0.79068637255950   -1.11782844128328
H          -0.28670659109171   -0.68894502359675    1.30526939628657
O           0.81295561779809    1.68074525031718   -1.50430584471502
H           1.60857807633227    2.04560739614035   -1.89315378670085
O          -2.69095463468088    0.83899223603537    0.06483972218911
H          -2.48023514641977   -0.01369321299466    0.46577848211666
O           0.60745623033065    0.00363523409440    2.48986045785949
H           0.34806021169692   -0.25851352422273    3.37535095083932
O           2.59108465559363   -1.50977342642592    1.76451143850093
H           2.03582214366947   -2.16869980958806    1.28529801810900
H           3.01480976483879   -1.01457153582240    1.05729142999750
H           1.44590162916726   -0.50523374567850    2.28270899561242
O          -0.52110946928047    2.13538524187059    0.92203833652326
H           0.00919128017072    2.14904060547448    0.11042933681554
H          -2.02592902751794    1.45966704257688    0.44976434871928
H          -0.06298859914147    1.54095895115740    1.53119976799941
N          -1.42935440031280    0.33708460394994   -2.18619152774280
H          -1.00973532973373   -0.64577240569393   -2.02176349642639
H          -1.93694087374394    0.37599970762280   -3.06315510858924
H          -2.05919166930166    0.56457068257440   -1.35096877558281
H          -0.63664171683185    1.00537949911075   -2.16910843615368
