    26
        -50.46911923  Gyration_radius:  2.40717369471 Dipole_moment: 4.346
 S          -0.44566162726847    0.64834990302644    1.58063430725441
O          -0.03287788507252    0.51754981683126    2.95265378720859
O          -1.27520936691911    1.80540112320131    1.27918965049257
O           0.85922781363917    0.90212071424804    0.70249007614192
O          -1.02689969305192   -0.58760612518657    1.05185071212802
H          -1.50376237307286   -0.78035887484428   -0.39982612090720
H           1.33422845869196    0.03680465136871    0.69161230744847
O          -1.78403266277998   -0.84194108269536   -1.36295580025943
H          -2.48940607698417   -1.48915162080491   -1.39338571277094
O           1.99520532193842   -1.46162364119748    0.67354985575149
H           2.91835194690048   -1.48128373760533    0.93337915402287
O           1.15949870422374    1.70040558530000   -1.92640210721664
H           1.47345310368945    1.77943799698526   -1.01680520229634
O           0.95489600279454   -0.96030731184213   -1.96122327870413
H           1.33969055440045   -1.28109560415675   -1.13458142865382
H          -0.00462507468326   -1.06523122974448   -1.86934161842256
H           1.19677415826463    0.73117453692504   -2.11332964413791
O           0.56865215402930   -2.02575539370739    2.77069157859822
H           1.47647624435918   -1.80109929094921    1.46127012783981
H           0.40183744091939   -1.08819653043397    3.02619559217931
H          -0.27363882872049   -2.31346703454908    2.40621533005519
N          -1.38784091290838    1.82944691452033   -1.29011908969576
H          -1.96751871744785    2.55719979090956   -1.69332437791409
H          -0.37598389392483    1.88961489725644   -1.63450294479483
H          -1.37100488225490    1.89732826545542   -0.21105250423430
H          -1.73982989873013    0.88228329168420   -1.52288263911399
