    26
        -50.44980676  Gyration_radius:  2.56464121557 Dipole_moment: 6.679
 S           0.22168261017298    1.44982939651381   -2.27179696379347
O           1.03503297868878    0.85898523856401   -1.18354650955777
O           0.93662688141443    2.38729966370102   -3.07417926850713
O          -0.10091567517621    0.20234057734044   -3.23066809608039
O          -1.05881655600149    1.86825264589897   -1.74197660477854
H          -1.82808404343380    0.58464875495828   -1.30226821851793
H           0.50317323278949    0.35836973379028   -3.94830012758386
O           0.02313601853984   -2.02637328300057    1.72573381934857
H          -0.27313963109319   -2.92491466321650    1.87319856537700
O          -2.29167133315797   -0.23663752838095   -0.97249641779003
H          -3.16720874578074   -0.21127723218781   -1.36045863910552
O           0.47199078203771    1.56327842890090    1.14300349493539
H           0.67927587556432    1.37646161181066    0.14531736618979
O           0.10540588790221   -1.61198903414021   -0.84207936755362
H           0.11424333714789   -1.92433151759464    0.73361249244256
H          -0.81295852120274   -1.41261976497376   -1.07976027985859
H           0.58113504391625   -0.77829277128202   -1.03263586535079
O          -1.58761073030595    0.17675008417888    1.58679714161809
H          -1.12542856109523   -0.65737060467506    1.79894473052578
H          -0.44701028768598    1.10554789836876    1.33783938399520
H          -1.98457554828591    0.04145035241036    0.69961342966049
N           2.07042996286351   -0.07884822608087    2.25449106864678
H           1.48450947282852   -0.91369500836224    2.25695897653764
H           1.17984541067172    0.95729653908375    1.65885868927900
H           2.41636723393260    0.08620816024777    3.18995781349353
H           2.85456489470061   -0.24036942196585    1.63583936641646
