    26
        -50.46911922  Gyration_radius:  2.40720592027 Dipole_moment: 4.346
 S           0.02684882081974   -1.23226967929536   -1.26409483105672
O          -0.39656074156663   -1.38089075720933   -2.63106916190799
O           0.98327405544059   -2.22089926453074   -0.78914703714421
O           0.83662041241220    0.13518871465481   -1.15197134433126
O          -1.10181102275904   -1.08396711079708   -0.34264030736430
H          -0.96966114997894   -0.84458645656175    1.17296607142576
H           0.15532614231442    0.84489693318666   -1.23363128966117
O          -1.06393511386066    1.93649705318083   -1.29935787806448
H          -0.93398888592773    2.62367251354147   -1.95590494559115
O          -0.81188262319583   -0.67846800050702    2.15149264074517
H          -1.57292554339640   -1.03870924585021    2.60800457021795
O           2.41992792924822    1.15450378761436    0.87085675938492
H           2.30165424695526    1.03191700314070   -0.07953854477989
O          -2.54809513163611    0.09043021352640   -2.36737495077309
H          -2.91295890253984   -0.37932842805427   -1.61154877838938
H          -1.73520065454851    1.30206410845691   -1.68889086567897
H          -1.79683341598415   -0.48025839946265   -2.65380096923242
O          -0.07926875844509    1.92483828514434    1.40366487685466
H          -0.52510586387505    2.03533590046766    0.55317754762625
H          -0.43659857414469    1.11065215640807    1.79039984845703
H           1.58809849098290    1.59928468410619    1.16403871540407
N           1.73258659500062   -1.30499679428988    1.49435391221106
H           2.38259573515474   -1.89127979487596    2.00619773150157
H           0.83970848995642   -1.18026979541223    2.00663194333221
H           2.13553850550306   -0.33056460969860    1.30946090152679
H           1.48264696806536   -1.74279304686091    0.53772539527930
