    26
        -50.44980668  Gyration_radius:  2.56476141997 Dipole_moment: 6.681
 S          -0.79867505897506   -2.23994532910217   -1.28801775933796
O           0.22924643168912   -1.74358213228847   -0.34358756588650
O          -0.50249110810753   -3.52535290936175   -1.83009377191098
O          -2.10112541614327   -2.43695333121975   -0.36892847666060
O          -1.14255543839625   -1.18795858031751   -2.22098160316469
H          -1.83940900197699   -0.05078461301752   -1.41245950926561
H          -2.11236231673863   -3.38182649962805   -0.26238411557065
O           1.63934687427453    0.16176397372217   -1.12237084580289
H           1.05483938241592   -0.66595455253310   -0.90629308637911
O          -2.23478408366771    0.69625894299915   -0.87969019816240
H          -3.05694633022968    0.91819106029727   -1.31849010823938
O           0.38899002503008    1.83704952395352    1.88707159922453
H          -0.04526105702427    2.36745127478655    2.55566307815031
O          -1.07909715453897   -0.26531038623770    1.44246043329275
H          -0.16047187207972    1.00497292752744    1.79414862901264
H          -1.76585505872263    0.04963983961944    0.83511307666716
H          -0.57994374971272   -0.91783230783176    0.91078016454018
O           0.05498012225344    2.09956896532854   -0.81220333547745
H          -0.83661836164652    1.70222923279761   -0.91270210494267
H           0.18833285645059    2.20879644895944    0.14942024491278
H           0.99014974141605    0.98065961250302   -1.12695035036645
N           2.80850038592051    0.48922654684661    1.11663789933946
H           3.71002768610039    0.94352279610359    1.17009646745121
H           2.85937402502842   -0.40296543626453    1.59110437321550
H           2.11414490153296    1.06693109400637    1.59026934200344
H           2.21766358558338    0.29220383831753   -0.23761247674840
