    26
        -50.45004755  Gyration_radius:  2.5382408848 Dipole_moment: 6.005
 S          -1.45558765038882   -1.29134726621048    1.75542372110960
O          -0.54282479037748   -0.17068859262824    1.69422814143828
O          -2.01413000328656   -1.61163271192396    3.01319008176979
O          -2.59133836194720   -1.04901982905578    0.72681651501349
O          -0.71888326449670   -2.53868416250213    1.19795055661733
H          -0.08232511655794   -2.28031340840572    0.47273723615668
H          -2.33870109416393   -0.38838928471889    0.02066624122020
O           1.06295806201074   -1.94236420514026   -0.58917129368603
H           1.62173415071732   -2.71231295150776   -0.70595007651645
O          -2.09162567113451    0.61690935538078   -1.19172470031703
H          -2.77258395586536    0.47285231587154   -1.85074978527769
O           1.48506362676211    2.13071726863451   -0.92734843903625
H           1.62556639143322    2.97308339991445   -1.36103849506586
O           0.21636691497788    0.10141179119330   -2.23274059888459
H           0.51308467479235   -0.71035730900422   -1.79086594598347
H          -1.21199117046583    0.40525840864398   -1.63677447057313
H           0.77144989035264    0.81808183837329   -1.86327309544671
O          -0.69080760874742    2.27666959359080    0.56168528069302
H          -0.60840764766644    1.49508173267589    1.13691227209562
H           0.70479787267864    2.25622360301383   -0.32373961886154
H          -1.38789363374537    2.03657246171389   -0.06256481161254
N           2.20083910553985   -0.12693140277044    0.84295915515690
H           2.30980652425111    0.71167442782594    0.28043734651081
H           1.59767114548669   -1.25728816592435   -0.03553571648260
H           3.01448962256311   -0.22740182918888    1.43467990016068
H           1.38327198728368    0.01219493215235    1.43379058979432
