    26
        -50.45730952  Gyration_radius:  2.44893739887 Dipole_moment: 7.981
 S          -1.25388402874853   -0.03229123967909    2.06944659965963
O           0.01382703912492    0.71746680998675    1.80846267259772
O          -1.93256355871518    0.42521533485194    3.22938600272755
O          -2.03788015803699   -0.09573251719636    0.84341163116349
O          -0.75361787183513   -1.52154492908493    2.30586906400652
H          -0.70321559889326   -1.86773022444246    1.39858236834137
H          -1.98685380033915    0.80665105287573   -0.42405788226440
O          -0.18625389662175   -2.38983562829273   -0.20062896840156
H          -0.71248172162188   -3.15282109555649   -0.44176827388622
O          -1.90107959892038    1.32864945315923   -1.27239211411086
H          -2.79466281940385    1.56059811802685   -1.52702441879687
O           2.04810648482610    0.84734406829034   -1.39092582853920
H           2.74976338774607    1.35509574176566   -1.79873403396841
O          -0.22785255575057   -0.63650990665790   -2.13372687933560
H          -0.29510957017066   -1.73216271941247   -0.94822995280529
H          -0.90705686760594    0.03991671282145   -1.94678417030203
H           0.61875517761239   -0.16922774016626   -2.08096729475088
O           0.36762318859566    2.41149750247679   -0.22806775673935
H           0.23407056731816    1.95499631534168    0.62847612407524
H           1.41835190104769    1.52122571490408   -0.97144272976206
H          -0.46800371014711    2.27141393792423   -0.70614760950218
N           1.77611029923149   -0.75046835809406    0.75674563005790
H           1.27989921093473   -1.60106921360396    0.45996758435028
H           2.08287215676338   -0.21270511211729   -0.08284095249817
H           1.02215332203284   -0.10910113136810    1.27864993225937
H           2.54898303157951   -0.96887093675575    1.37474124642389
