    26
        -50.46347353  Gyration_radius:  2.63596324183 Dipole_moment: 7.102
 S           0.45219874576253    0.22926200875784    0.56115521405650
O           0.91238565909164    1.44274625542701   -0.12209098256499
O          -0.96352606339142    0.37415105383137    0.94374797574834
O           0.52031951555415   -0.87893611064146   -0.52324784313961
O           1.27930643270980   -0.15429026750819    1.67793618384302
O          -0.92927245472421   -1.65841022720288    2.68213816668365
H          -0.12052605883598   -1.43465645521495    3.15223493597985
H          -1.10276367008732   -0.88997933658809    2.10773550111304
O           0.55990605274611    0.83050926168224   -2.70080624730761
H           0.53046965270830   -0.12963478779168   -2.65858866881341
H           0.83403667695263    1.09590982659942   -1.79852194293016
O           2.57034553418764   -2.47732950674529    1.79038046557585
H           2.17551078542445   -1.58138066578983    1.84006918227023
H           3.39609005526485   -2.37781410365120    1.31493355339375
O          -1.79052578333888    1.99251854003555   -2.94758141011589
H          -1.73579759741521    2.62965800276958   -3.66142399339141
H          -0.93611814865824    1.48601524016999   -2.96492645444117
O           0.17639411054655   -3.05819488405418    0.69594274569776
H           1.07312021790911   -3.14657520772725    1.07742098733397
H          -0.38370304443780   -2.75296935665459    1.44600168027844
H           0.34614802312061   -1.79513893982662   -0.08070565706834
N          -1.40953181231508    2.49567345501970   -0.37256426170804
H          -1.73028057643477    2.37679742984020   -1.37016882023003
H          -1.79027190867397    3.32415503392311    0.07077219304566
H          -1.57784069597856    1.60736586776592    0.19368094313287
H          -0.35607363768665    2.45054787358075   -0.35352345644882
