    26
        -50.45730966  Gyration_radius:  2.44878935879 Dipole_moment: 7.984
 S          -0.64756097894499   -1.62925815351904   -1.66704308185576
O           0.64374330621092   -0.98505348299998   -1.86527826753319
O          -0.83512801444220   -2.87864837908635   -2.31448355279667
O          -0.95431723880460   -1.68492424557641   -0.20418751528521
O          -1.70845489413989   -0.58460464537890   -2.22160321631710
H          -1.25889651794153    0.26410410898146   -2.07009107861725
H           1.83384004820767   -0.80404212623867   -0.87790086191588
O           0.01971260363587    0.80233680144070    2.48979526204061
H           0.06314316600389    0.87496813549969    3.44337354623069
O          -0.69754607338368    1.80495529759011   -1.42890988921968
H          -0.51429757507350    2.38178376560988   -2.17108993858221
O           2.56566289776168   -0.61024771573563   -0.22497104432489
H           3.38125884756637   -0.83617109769103   -0.67325274893429
O           1.34035741006486    1.78205962376107    0.20221543028558
H           1.90017722061573    1.00391695125676    0.01571776560430
H           0.13973191380672    1.78732853369879   -0.87953495283525
H           0.96815888759080    1.62344064327898    1.08206504085451
O           0.88550471124450   -1.49689937814593    1.72479127984414
H           0.39053920491508   -0.11194210799733    2.25845287636553
H           0.20413621839472   -1.75587966029098    1.07008457724246
H           1.67044861676820   -1.29643838118712    1.18616421101086
N          -1.90737636111328    0.49458714621985    0.63827271220332
H          -2.89069691209120    0.44628162695621    0.87847558407519
H          -1.31126820670300    0.72735297091583    1.46233935135617
H          -1.54405675866576   -0.49373430619393    0.26084787801269
H          -1.73681551142758    1.17472806481607   -0.11424937690571
