    26
        -50.45212784  Gyration_radius:  2.45279652199 Dipole_moment: 5.976
 S          -1.83950087461842   -1.21562894760582    0.65642738887717
O          -1.83389972792965   -0.23345331667588   -0.40858727593621
O          -2.56202260990926   -2.40501615406118    0.38560733043710
O          -0.36067306597540   -1.53827001567525    1.01392966237966
O          -2.30771450321494   -0.55137988724099    1.95572473839009
H          -1.60261651263565    0.14659352433566    2.14073511165518
H           0.11062831858106   -1.93553245167024    0.21022400328876
O           0.77852185169972   -2.41739692107066   -1.09207182857572
H           0.30427062308167   -3.19401497977117   -1.39634535512186
O           1.37582121517193    1.66812248386408   -1.42014441196843
H           2.12547498458361    2.15284812727995   -1.76627643313941
O          -0.50132272655183    1.24352435420073    2.26036866111540
H          -0.75891231550317    1.86214980558425    2.94711318473980
O          -0.10032200458364   -0.41118673105603   -2.46844518483551
H           0.52923820659788   -1.67361640914001   -1.72156728049364
H          -0.88442285222321   -0.31525780444821   -1.89881457522550
H           0.44582658782881    0.37213037904592   -2.27828436080961
O          -0.93747217455982    2.27718755119811   -0.06803099525491
H          -1.44238572828035    1.48418933589727   -0.32484364369598
H          -0.61416880777642    1.73133025672960    1.38677131082191
H          -0.13023815061503    2.24623907165644   -0.61094092840358
N           2.10220100346511    0.09280748930235    0.59087165681897
H           1.70884758620789    1.10500570808370   -0.66100505472687
H           2.16500123711369   -0.84119506889101    0.20149069902989
H           2.92950895806444    0.25314527100411    1.15212848115233
H           1.30033150197903    0.09667532912471    1.21396508948293
