    26
        -50.45723608  Gyration_radius:  2.49130457206 Dipole_moment: 8.463
 S          -0.71731273810387   -2.26913898113277   -0.23398382170955
O          -1.36577738141027   -1.01575921566797   -0.72917242341695
O          -1.26207100350802   -3.43868126377058   -0.82360396298115
O           0.73380081983574   -2.12888253779838   -0.32651520912182
O          -1.06504662710156   -2.28258372971345    1.31283003854290
H          -0.54931357868692   -1.58032505389428    1.75014606633474
H           0.99635871840615   -1.31640208769421   -2.03133294294443
O           0.54565766976363   -0.58173608287164   -2.47810993627189
H          -0.34309213740819   -0.63405947753782   -2.07466124925948
O          -0.60797969143553    2.85569469829791   -0.66742889325158
H          -1.05791302915313    2.92399810704214   -1.51178196690701
O           0.17512984067241   -0.19021966757217    2.55024257068218
H           0.50281011060693   -0.41740822692610    3.42100732562166
O           1.59239577784375    1.48181975589287   -1.30293745844308
H           2.32773431767042    1.79857939084345   -1.82890970145433
H           1.19807167782462    0.70514209812501   -1.80699435469399
H           0.26500582033034    2.44409899721666   -0.85907410585756
O           2.07051480704859   -0.21358025557100    0.84276231517515
H           1.70307184047779   -1.01408923524758    0.39556613361728
H           2.00207424878923    0.49637418413006    0.18253308838679
H           0.98531662784025   -0.13686499355354    1.94441233491845
N          -1.64136259577467    0.92445472705145    0.87614954183977
H          -1.03450845823812    0.70587605872117    1.68155849318039
H          -1.56875198800121    0.06464065956147    0.18588155977960
H          -2.60176437729096    1.05375088637330    1.17380352753704
H          -1.28304871103214    1.76530127569568    0.35761301071097
