    26
        -50.45723600  Gyration_radius:  2.49125923404 Dipole_moment: 8.466
 S          -2.11455610522837   -0.32934733623604   -1.06668578210228
O          -0.74576167075060   -0.69751662918044   -1.54364402199012
O          -3.14344639470905   -0.95453878732529   -1.81692000893795
O          -2.18460233105578   -0.51159608344306    0.38103234344038
O          -2.19071164800658    1.23348299642168   -1.32245025980092
H          -1.60572754535241    1.67844441308633   -0.68195583031419
H          -1.29692224783189   -2.17320186409942    0.66514318662468
O           2.95559031382196   -0.44104101854243   -0.20287493287785
H           3.15188753711087   -1.24686446344899   -0.68474476076759
O          -0.40075037851854    2.51505347466834    0.29009257006876
H          -0.73835904575566    3.34500672474628    0.62832145457969
O          -0.47299168124098   -2.54167809713556    0.30739940625596
H          -0.42181947538581   -2.08382892013864   -0.55458398227372
O          -0.57928023408542    0.68498662014211    2.05842800531768
H           0.17946173887376    0.07753480294737    2.06094265285823
H          -0.42361997541413    1.86037292083458    1.06288431915570
H          -1.28160060007540    0.21343186048873    1.54834352795537
O           1.32082538367533   -1.31045049012397    1.72186361485259
H           0.65018960689536   -1.83539956908746    1.18558971111759
H           2.43412815594338   -0.71725333687416    0.58452344125674
H           1.56274550182515   -1.86349960432127    2.46570697754434
N           1.09122318896095    1.04313456051548   -1.42805502390882
H           1.90534029237312    0.55592827729183   -0.97612964829236
H           0.72666327475178    1.78987790605749   -0.81637298490313
H           1.33915133000873    1.41276429732956   -2.33886859874269
H           0.28294301924180    0.29619733551263   -1.52698540615341
