    26
        -50.45730955  Gyration_radius:  2.44931003038 Dipole_moment: 7.984
 S          -1.41831690679671   -0.21930991949970    1.94975570450440
O          -0.22407559931608    0.67100275050980    1.81417125728014
O          -2.24093903165265    0.13146351978592    3.05227201811225
O          -2.08164161030986   -0.33694150642670    0.65831849091498
O          -0.77777525830907   -1.65064273192973    2.20586466802379
H          -0.61319523324246   -1.96711686048520    1.30144335806204
H          -2.01917402805198    0.59439847699605   -0.58762460132569
O           0.09813135448955   -2.38998796871535   -0.25375411469315
H          -0.31224386928233   -3.20165768883660   -0.55374825900110
O          -1.91792393339671    1.14257254032078   -1.41749704691043
H          -2.80605537968004    1.28210605223625   -1.74744594971124
O           2.05499667136874    1.10027329936584   -1.18846662802987
H           2.73024500744394    1.69170174612495   -1.52115478251502
O           0.03220953497507   -0.60475504263771   -2.15694232364330
H          -0.73164160329524   -0.01161974174568   -2.02093008276326
H           0.81369839907679   -0.04914088654982   -2.02121316133758
H          -0.01721351343077   -1.73039951128457   -0.99861322586907
O           0.11585069850333    2.44221801349443   -0.15842381624839
H          -0.04034321636882    1.95341281691327    0.67615015460015
H           1.31970889842356    1.69064309041446   -0.81749080191497
H          -0.65409643547090    2.22295142650261   -0.71128762434581
N           1.77418657387126   -0.57037447044585    0.90140066099781
H           1.40234007369058   -1.46199526582390    0.54826051818271
H           2.09159739971759    0.01848910151576    0.10076344189507
H           0.91185819704163   -0.02794757283147    1.36390996589293
H           2.50981278996857   -0.71934369696909    1.58228215984669
