    26
        -50.45723589  Gyration_radius:  2.49132550748 Dipole_moment: 8.465
 S           0.01083091626571   -0.97311534249941   -2.18480622505236
O          -1.10061420065960   -0.90550126473957   -1.18647827940567
O          -0.43550918218555   -1.34650058573763   -3.47853300505965
O           0.79597626192522    0.25681641242447   -2.11479939848819
O           0.94320274164781   -2.12804711991222   -1.62707852049667
H           1.39010098961344   -1.80209893501288   -0.82431017351583
H          -0.52498920112966    1.62392659924225   -1.98180305509023
O           2.04325241153366   -1.35411706169798    0.74746309250143
H           2.95022699962171   -1.64525506061176    0.84669722919692
O          -1.33465190122710    1.69754821918474   -1.45122292059477
H          -1.56962844998472    0.75573480834285   -1.33686161349647
O          -1.65550447313657    0.57969737153292    2.42746259916517
H          -2.57440979285307    0.72169530883519    2.19182934597781
O           1.95713530831013    1.10305664929397    0.06685654976968
H           1.23175169647610    1.59267656966882    0.48969154846970
H           2.08067700977763   -0.35910379607125    0.56065718375540
H           1.62088966492828    0.87669829829961   -0.83389669208575
O          -0.38872953113828    2.34675826223478    0.87644934672155
H          -1.14521990545528    1.27833923886476    1.95875428528010
H          -0.41126560004624    3.30031053608992    0.96563066609168
H          -0.79060756823805    2.13727972999014   -0.02213742211089
N          -0.61840471782003   -1.57034679560913    1.21015810450859
H           0.41009545154716   -1.60070662903664    1.28794487554781
H          -0.84687141957997   -1.32669657167886    0.15700937710463
H          -1.02451843914907   -2.46558365265153    1.45784682638139
H          -1.01321505909081   -0.79346518878466    1.79747627494948
