    26
        -50.45911120  Gyration_radius:  2.43621998842 Dipole_moment: 3.762
 S          -1.15718037476967    1.68003655035635    0.72210123720764
O           0.17634104187031    1.39885213946106    1.23188647352227
O          -1.17309566296838    1.78075716407200   -0.72710914563422
O          -2.14579525568232    0.76150684735654    1.24728451362138
O          -1.56670623053467    3.11282650852011    1.26067692859882
H          -1.95178990249701    2.90738205303659    2.10596306225402
H          -2.13033804663256   -0.35829906633703    0.03801815331495
O           1.96956503488855   -1.77418310624908    0.00445273723779
H           2.51194178126922   -2.52748279788749    0.23800053681614
O          -2.07984375143025   -1.00645151557706   -0.69894691323095
H          -2.69913516022679   -0.68502278418956   -1.35726000843247
O           0.80854075158412    1.11670494123430   -2.11615864329108
H          -0.00793119928359    1.49510790580450   -1.61937113628500
O           0.23239528162923   -1.31712457112382   -2.02798666079701
H           0.89553957080723   -1.62947034885892   -1.38154698254992
H          -0.62640656851130   -1.29250578631102   -1.54779687098690
H           0.57334189907710    0.08986175518415   -2.22312691683963
O           2.36295488782283    0.92813412852005   -0.16351422359278
H           2.43267573123828   -0.04156253170638   -0.07326276782734
H           1.57215991295875    1.11939462768932   -1.38682658758391
H           1.67057202759014    1.19823829675180    0.48018867135239
N          -0.00434194673484   -1.41699096828612    1.68531709622552
H           1.24291162637696   -1.69757498619072    0.70420957686312
H          -0.03353779048052   -0.39686319214083    1.67573656037840
H          -0.87579613364266   -1.73285815187607    1.27561182825606
H           0.00295848627573   -1.71241312124094    2.65345948139407
