    26
        -50.45624237  Gyration_radius:  2.44044111357 Dipole_moment: 4.888
 S          -0.58093882068092   -1.06384826557702    1.60313648435457
O           0.15372305556227    0.24804158901028    1.94628259151143
O          -1.92332063119190   -1.05432937614401    2.07347696121062
O          -0.47540968479992   -1.26995960121376    0.16444635201307
O           0.25608387895098   -2.10043404560579    2.34144953058800
H           1.24146669542946   -1.81960835122713    2.27724999070731
H          -1.97941089653122   -0.41292238933479   -0.22076405198356
O           2.59368261044911   -1.14619994975714    2.10519973606818
H           2.46654050995828   -0.30163649589109    2.54701604382912
O           0.94429247005762    1.72932705741227   -1.58278103106224
H           1.18003571736320    2.40607066719137   -2.21827820190626
O          -2.66417058445223    0.27449044934678   -0.28287775721870
H          -3.22679509024414    0.11635655249336    0.48086447987452
O           2.05883326006916   -0.56682846234289   -0.40634526638293
H           2.58733139232023   -0.94778448621144    1.13444727970985
H           1.15921711863226   -0.92653212182009   -0.31196814827437
H           1.93599409924974    0.33316764954642   -0.74167167978004
O          -0.77648469178551    2.03355107188365    0.46684665391807
H          -0.11924470707945    2.04626773694569   -0.26273101223941
H          -1.56903192335679    1.57133853473894    0.11476615712098
H          -0.23047541818202    1.05156649074092    1.39450822464584
N          -0.67114453850493   -0.10640682825914   -2.61345133172731
H          -1.63149668247722    0.21047819855154   -2.54290446129172
H           0.36633362079724    1.06269918532282   -2.05902479747110
H          -0.54493144532200   -0.81229703221687   -1.89386807294746
H          -0.55067932426716   -0.55456777756502   -3.51302466327756
