    26
        -50.45091462  Gyration_radius:  2.53803032875 Dipole_moment: 7.496
 S          -1.98223468477543    1.37472146966618   -0.50479373517988
O          -0.78395816705770    1.65774524108828    0.29764304749728
O          -1.68671342427322    0.96718979878872   -1.84647783522272
O          -2.85658087838128    0.46074960245557    0.22251841578516
O          -2.76308321980799    2.75291174718411   -0.59571286129790
H          -2.98795643054582    2.94200924352548    0.31014978985661
H          -2.17751344671685   -0.94380060456819    0.03918351324337
O          -1.64447547497780   -1.78683149170503    0.06824189967389
H          -2.26593502754768   -2.49896407235303   -0.09095745217751
O           0.97263799653652    0.88274105825845   -1.83074134234720
H           0.01799445966874    1.00395488654618   -1.99281022903033
O           2.33831818848193   -1.47320179256763    0.76349754848184
H           2.77767757299842   -2.29728665369301    0.97299655656408
O           2.50146895999406    1.31178742084348    0.59097309599788
H           3.09406704417844    1.71457727162930   -0.04560825656812
H           1.13353522939011    1.28686713544028   -0.96545329265244
H           2.69820176226810    0.36476008633680    0.58648197031340
O           0.84765654140811   -1.70704940232386   -1.31580503128965
H           0.93659956711770   -0.78534895848858   -1.66777633222901
H           1.83437306178191   -1.62743105327743   -0.09872824673002
H          -0.07281780007397   -1.78244792657170   -1.02574034308851
N           0.02338774062954   -0.37240521463613    1.65160971794509
H          -0.62255576755172   -1.09253976225643    1.27793844532762
H           1.00208420202761   -0.66973836674463    1.44936839407710
H          -0.21835719329329    0.53457586968825    1.10608884143717
H          -0.11582082145881   -0.21754553228009    2.64391371161079
