    26
        -50.45911165  Gyration_radius:  2.43626601743 Dipole_moment: 3.767
 S          -1.10015693766410   -1.80073901257125    0.48067390751173
O          -1.28050412416729   -0.57399854898243    1.24232951717810
O          -1.29074563990772   -1.58729742796202   -0.94360809022407
O           0.14651660233008   -2.46323458188012    0.80270991363861
O          -2.24916122749821   -2.79628202448444    0.92706288926001
H          -1.86414342523016   -3.22014426049470    1.68674018299792
H           1.09801842610436   -1.82193547390762   -0.38059960201288
O           0.95054380878708    2.44370759601021    0.39000578669903
H           1.47567318420138    3.17055838462475    0.72487945567159
O           1.63096315980169   -1.40578268413630   -1.09372310752472
H           1.50467062958895   -1.96819839517651   -1.86049355160486
O          -1.47794222823967    0.71801029940985   -1.91728921728419
H          -1.50368059608761   -0.25614166784590   -1.59034535237345
O           1.00074368276272    1.06175245597523   -1.94336282255365
H           1.10117399625245    1.66284618018465   -1.17929604754036
H           1.31868259208263    0.18062163492146   -1.64119869408266
H          -0.44507011399008    0.89659958347937   -2.06791316445450
O          -1.71888876826175    1.84982764893898    0.30211829561555
H          -1.70141730581189    1.28124484763899   -1.05259590689745
H          -1.67791557164851    1.00152632167387    0.79750077447601
H          -0.83418359282505    2.24998688069827    0.40486586646017
N           1.43832403182183    0.20431113194212    1.65321287129217
H           1.18719243882990    1.62452527002619    0.93452934783461
H           0.49784995468752   -0.19177864042100    1.63701774909667
H           2.01506682038421   -0.40257049490347    1.08214715211959
H           1.77839019371648    0.14258495722189    2.60463185671116
