    26
        -50.45124309  Gyration_radius:  2.8502384309 Dipole_moment: 7.277
 S          -1.69406883373874   -2.28040711312503    1.18633111506299
O          -0.39769993634397   -2.00047955158467    1.79395709667815
O          -2.58158796617296   -3.09332433669718    1.95346641481266
O          -2.43606622203826   -0.80798811389960    1.16053441241046
O          -1.56137599226834   -2.62088521792186   -0.22148421519579
H          -0.90923348925839   -1.77480243296434   -1.33472290290076
H          -3.17729215910009   -1.03323032012645    1.71275648568803
O          -0.43531197311208   -1.17686028402008   -1.98862450168375
H          -0.31817504069316   -1.70011340717195   -2.78208257449436
O           3.50628267788088    0.39645832594301    0.17849621090440
H           4.18713572500084    0.16749658115779   -0.45481192236742
O          -0.27601750432516    2.11832571160500    0.40082295822655
H          -0.74038115413238    2.39407208014152    1.19233247037939
O           2.28563558807481    2.73665940122154   -0.48195410576475
H           1.34901302076754    2.60518786269442   -0.25712164886553
H           2.53968028444530    3.58273042513910   -0.11067672576634
H           3.18255389615936    1.28678191726177   -0.06673721405432
O          -2.03811505255754    0.84530819468140   -1.03081858713350
H          -2.36606382163784    0.27351398179606   -0.31833761661789
H          -0.97550076797550    1.76785152180777   -0.22171541081197
H          -1.53813940518458    0.25050586461529   -1.61455097644879
N           0.89511118903885   -0.39023234984992    0.26211650193398
H           0.51026535185432    0.55261690861476    0.44930428216987
H           0.62162227358980   -0.66625441702677   -0.69648500520450
H           1.92558468566779   -0.34481082414417    0.34856010767230
H           0.44214464602896   -1.08812040801103    0.94144534124265
