    26
        -50.45124351  Gyration_radius:  2.85037772776 Dipole_moment: 7.273
 S          -1.61042593431038   -1.51656273565197   -2.14100447166575
O          -0.17566829094790   -1.76639176965811   -2.05484301745365
O          -2.36577782714767   -2.46454465661530   -2.89443630377073
O          -2.13588050863523   -1.73830578300199   -0.59384229358446
O          -1.89338705649606   -0.11371817621968   -2.40029571715418
H          -1.44387660403049    1.10440708732995   -1.56646196749437
H          -2.72831833986021   -2.46223501934476   -0.76721288657001
O           3.45481131144796    0.74247159006450   -0.02388129029694
H           3.90623598667705    1.54421071222787   -0.28990427580050
O          -1.08083333958404    1.84075556464281   -0.98716553513475
H          -1.24137587065315    2.65321095750065   -1.46804452586570
O           0.11152112183940   -0.52796259889974    2.10516256844218
H          -0.09322656931243   -1.42303806871975    2.37892805645466
O          -2.10904571774125    0.42745934379786    1.13988173849847
H          -1.85780399597990    1.14175636135367    0.53067892443854
H          -2.31264060231139   -0.32732186709946    0.56465545979550
H          -0.76400526449699   -0.10131352291071    1.87941467220126
O           2.41745068367714    0.97750284679642    2.48018574440833
H           1.56132026168200    0.51851334044578    2.44311280171186
H           2.86524760622427    0.65765112185595    3.26468406699674
H           3.19737849103441    0.86229032163168    0.91267355292363
N           0.87510321350722   -0.00248522711714   -0.50726534097690
H           0.33076167446924    0.85847441327551   -0.68678971898497
H           1.89020701827031    0.18427867960377   -0.58635321157442
H           0.67558253130145   -0.31531764242472    0.45939766806676
H           0.52664604135853   -0.75378527290500   -1.19127468764610
