    26
        -50.43832372  Gyration_radius:  2.67228130212 Dipole_moment: 8.969
 S          -2.65405610211013   -1.17901563887612    0.02263243965335
O          -2.19519699940981   -1.93874292250531   -1.10746317178663
O          -3.78723050762486   -1.63741630279221    0.73651030211533
O          -1.43408468218973   -1.00735084984387    0.98849053617969
O          -2.91655548984667    0.29061584975263   -0.42310472890526
H          -2.14178682790131    0.58244537181077   -0.95892551325325
H          -0.68852369857101   -1.56790421469864    0.57225577728102
O          -0.86654672274633    1.21528588382275   -1.81158300734640
H          -1.25879864559744    1.67139536262738   -2.55847360216406
O           0.29192537513316   -2.39932910543749   -0.23611214471568
H          -0.43011275311704   -2.66002558468254   -0.82932288001408
O           2.25088113954193    1.15622147846897    0.66226604107340
H           3.16424314330225    1.27231636681623    0.92650490809610
O           1.42863498253122   -0.37365564172374   -1.50878904268151
H           0.61527965506289    0.07279942480607   -1.78576673033405
H           1.81093281739550    0.18031080015183   -0.80736319723484
H           0.82134073255358   -1.73713627487089   -0.75009878293967
O           0.45810428920629    2.94454090558889   -0.30258992953745
H           1.08553940523754    2.34328569899639    0.14638642762765
H           0.98715039252957    3.61907086453806   -0.73213499654688
H          -0.46548296948179    1.90525639260320   -1.22490797862721
N           1.16957757354694   -0.61489339747669    2.29326458356570
H           1.83910710572296    0.51632670518334    1.32169012782286
H           1.33380375805629   -1.51836662470481    1.86183653710899
H           1.41208895263506   -0.68846198900052    3.27370019875238
H           0.16976609613873   -0.44757252855879    2.23109782681286
