    26
        -50.45124315  Gyration_radius:  2.84980515609 Dipole_moment: 7.273
 S           2.11854152459130    1.17740284027041    1.89695052528902
O           0.85056209554718    0.74097723433535    2.47148982888553
O           3.18282939522602    1.39291608808548    2.82312850479800
O           2.61839794037815   -0.12879078770297    1.02352195816200
O           1.92166344316829    2.20717885992188    0.88898692961772
H           1.05011918948129    2.12418152962142   -0.38162455414389
H           3.42596481722499   -0.29323006570100    1.49870771782636
O          -0.01466549516323   -2.03182707582985   -0.76745835182202
H           0.47008597830951   -2.71657947205554   -0.30459372949723
O           0.43398472096888    1.99707544766440   -1.16512590852618
H           0.32935858159020    2.86451575485888   -1.55714616536671
O          -3.49693153083382   -0.12976177416152    0.48644579004408
H          -4.18670915759286    0.45246288574868    0.16663420666423
O          -2.70733183234739   -1.88198846017855   -1.43875501591461
H          -1.74558042388122   -1.96599321593613   -1.32449318271210
H          -3.05331507025559   -2.77311408626297   -1.50537659340842
H          -3.33429446126317   -0.78725296094612   -0.21991273690569
O           1.78865960190288   -0.35672466186341   -1.61437181064718
H           0.67267897533775   -1.47038452355441   -1.22784160629814
H           1.33623297520296    0.49494492703040   -1.73469519588906
H           2.26033489664142   -0.26846857655689   -0.77071756203128
N          -0.79959326145059    0.27365444310855    0.55610527573400
H          -0.54688005763320   -0.65827972301249    0.18230018360750
H          -0.18894247114506    0.47708359316208    1.41609428575836
H          -0.57152215250877    0.98224439573978   -0.16209004191064
H          -1.81364821144094    0.27775737419668    0.76383724868589
