    26
        -50.46108163  Gyration_radius:  2.41717455808 Dipole_moment: 7.905
 S           0.21413996657267   -0.75849137556050    0.48496251248860
O          -0.90526061033117   -0.89874166402005    1.38475922045462
O           0.02239276154463    0.52125517762551   -0.39291405964578
O           1.49403710915537   -0.53282849116263    1.15247434731635
O           0.31462508964864   -1.86685017738398   -0.47694187025548
O          -2.23404342596824    1.43442489216797    1.79684706387867
H          -1.95540872407139    0.50757528043312    1.87906750783372
H          -1.41050398690669    1.92451086150503    1.94740971343812
O           0.48929293362578    1.70681255482993    2.36258704738140
H           0.88543175574601    0.95059652517782    1.90127461757589
H           0.54537561559487    1.50118857784055    3.29819793050860
O           1.91090432222979    1.09732046061003   -2.23716704137009
H           1.46125758931378    1.31106654666843   -3.05659697727665
H           1.22552188461421    1.10330813529540   -1.54005868270738
O          -2.52501836881731   -1.69536508980195   -0.58402705245476
H          -2.14293734488822   -1.56901586941224    0.30186008507963
H          -1.81420200327050   -2.11305956540841   -1.07978885616454
O          -2.38796252055869    0.98261231997808   -0.80296034726173
H          -2.70982053932833    0.05623983575603   -0.84204353131089
H          -2.56557004101398    1.29873588782343    0.11875713611024
H          -0.99015742069678    0.74584283809314   -0.60971989490902
N           2.67137176457134   -1.15659824716189   -1.03519831108929
H           2.60793041632625   -0.33614747059558   -1.67817941361334
H           1.71640029300202   -1.66416149144742   -1.03805924134137
H           3.47454486983251   -1.75053397605659   -1.20919318323565
H           2.60765862406868   -0.79969647579211   -0.04534870942840
