    26
        -50.44282356  Gyration_radius:  2.59547154157 Dipole_moment: 6.744
 S          -0.99417077570730    0.84047231133878    1.80696926292084
O          -1.65789688640509   -0.27327446884447    1.16414625186685
O          -1.44533428732397    1.22087837336747    3.09034245142333
O           0.52886661267810    0.53105529839253    1.82107495699881
O          -1.08095142080885    2.06875538872208    0.86380819006892
H          -0.98123639659312    1.78562915660100   -0.08659858402896
H           0.64251521972084   -0.38435750912503    1.39610315351800
O           2.83241187687226    0.84677156410092    0.12030318784579
H           2.24812041016080    1.16334471902143    0.81712977350962
O          -0.99888798064222    1.35682902662627   -1.64110471415641
H          -1.20632801359210    2.11610992323187   -2.18900213565194
O           0.52907544894441   -1.69365763037777    0.58786862073741
H          -0.43416936672290   -1.65185091997496    0.67574738585075
O           3.33884578020836   -1.72773297432550    0.93177894768344
H           3.23232068259820    0.03028407689669    0.47456270726380
H           2.40204179674717   -1.94658383737690    1.02427028876409
H           3.66792289921337   -2.24596905526275    0.19481165312792
O           1.16527644512513   -0.39927528929291   -1.57101333419293
H           0.74391616512469   -1.32799849404327   -0.32225207579688
H           0.44911219390935    0.22653601245538   -1.74930729596025
H           1.86817273705967    0.12504244704484   -1.12338860017700
N          -3.08412876342169   -0.18996980948504   -1.29437731063165
H          -3.14471923089225   -1.08097655370660   -1.77055218872855
H          -2.79187793802416   -0.36622614165871   -0.33217464826704
H          -1.81695362641857    0.76296220991550   -1.62283207702678
H          -4.01194359166846    0.21320219591672   -1.26631383693179
