    26
        -50.45123035  Gyration_radius:  2.47006111359 Dipole_moment: 4.657
 S          -1.56504763227239   -0.97982082267589   -1.52557581366148
O          -1.57842088242803   -0.60419639149745   -0.12913961941335
O          -2.82848724981582   -1.13870997570297   -2.14393906186335
O          -0.68895340655464    0.05928857292127   -2.28775803786910
O          -0.72513897396080   -2.25856663917195   -1.69170718499844
H           0.20201526910065   -2.00156944103477   -1.40113763073989
H          -0.68168555211357    0.95051599204080   -1.83320098220624
O           1.63586893884030   -1.49611240646658   -1.02596400267916
H           2.16873490820411   -1.56232076713488   -1.82096767805405
O          -0.58539297294173    2.35756710463118   -1.10903382192064
H          -1.16589538577597    3.00265115271936   -1.51572654005161
O           0.98916860448817    0.85739897752931    2.29233084769648
H           1.51412675828290    0.92827868111304    3.08976255826409
O           1.79134651067281    1.02524168049223   -0.31862642957924
H           1.67483674779637   -0.53470818637191   -0.75695969006179
H           1.14273928135310    1.60062335490303   -0.74184267123322
H           1.59159821884846    1.05490538093671    0.63612548319610
O          -1.41327485601027    1.70836754372677    1.24196821178449
H          -1.68253006066156    0.83153547981030    0.91671934477065
H          -0.60555293613777    1.54735381477342    1.76024551393597
H          -0.93032079744443    2.20461330210368   -0.17200550874683
N           0.34207650149784   -1.63847252977691    1.72880576203987
H           1.04741681636721   -2.04914081034357    1.12786115988953
H          -0.44872232847885   -1.40243363877967    1.12920386938510
H           0.03443115454590   -2.34726397586374    2.38216047605394
H           0.76506330460072   -0.11502547287937    2.16840146606000
