    26
        -50.46108169  Gyration_radius:  2.41716845913 Dipole_moment: 7.903
 S          -0.89800565729747    0.13289621008395    0.17895728870877
O          -1.06271068340941    1.46919678871632    0.74622448392134
O           0.61903238108190    0.07325481775330   -0.19586213255073
O          -1.21227932254677   -0.93969091071355    1.09167477467875
O          -1.61038693640840    0.01780035987286   -1.10289497519204
O          -1.09384247183456   -2.76936483018039   -0.85084395255790
H          -1.32452177782430   -2.32298621982738   -0.01765972137535
H          -1.39204031260431   -2.15380115719173   -1.52741016144092
O           1.57816206395430    1.91121199495889   -1.92859876791363
H           1.42101416011625    1.27632350739207   -1.20191588835108
H           2.11059716530050    1.44837174637998   -2.57794348602245
O           0.71971132226782    0.86508524884274    2.73312012326572
H           0.12988436241494    1.12237573240477    2.00682359469517
H           0.19794820796476    0.94465913155535    3.53457983979630
O           0.97019829427623   -1.89789194469052    2.39445196951174
H           0.04672536095108   -1.74867193365178    2.13290039975187
H           1.28228916371858   -1.00602010356317    2.61404216340199
O           1.46222502442758   -2.26787919083821   -0.17626636872412
H           0.64875213721662   -2.71939673283591   -0.48866909251444
H           1.01716226199452   -0.90830207905251   -0.21912522953446
H           1.45936268135314   -2.34420739370717    0.81120360738753
N          -1.02256140560685    2.41432665878556   -1.63407904118670
H          -0.02923606237065    2.43000756450108   -1.95594398406923
H          -1.02400112614153    2.46035130555169   -0.58087323811608
H          -1.60683943709004    3.11364705627587   -2.07875538250844
H          -1.38663939390607    1.39870436317763   -1.70713681306264
