    26
        -50.44583452  Gyration_radius:  2.46756950823 Dipole_moment: 3.021
 S           0.78716140479720    1.35602372784196    1.37473971224620
O           0.01363260486542    2.13772365748335    0.41710590316990
O           1.99982307423571    0.81365385945619    0.81458607672807
O           1.22040323946068    2.36949445174974    2.52133821191416
O          -0.04258543212091    0.36586777925137    2.05414635681040
H          -1.54153399693550    0.55982745144223    1.51830445777864
H           1.74127769864803    3.03218858095795    2.07640555274733
O          -0.13834037402553   -2.18568161128093   -0.83694587455948
H          -0.16986843832662   -3.09724726883121   -1.12927565065718
O          -1.06903218932390    1.12788125126671   -2.64171860519230
H          -0.97239252354242    1.07897384526745   -3.59341573537023
O          -2.14292439698634    0.99530786639469    0.83847264803405
H          -1.44808853853762    1.66489606559685    0.49347695782651
O           1.19314509428479    0.15477032192389   -1.67656267210691
H          -0.17181409474461    0.95212735752874   -2.26438527764055
H           1.55368138198588    0.48558656871056   -0.83499251726528
H           0.85506005809700   -0.73322985253003   -1.48734145427777
O          -2.25869735266706   -0.56357040337502   -1.06503701282722
H          -1.93133863608645    0.06331824716833   -1.76872071702309
H          -1.52972502250523   -1.21358051055552   -0.93871759940895
H          -2.27155969315390    0.25462323359433   -0.01013592876148
N           1.33827269999810   -1.98012509394974    1.31678188267327
H           0.81651648214461   -1.24317618767198    1.79125026612429
H           1.57417965691556   -2.68950285220152    1.99968686595419
H           0.39669711521381   -2.17001074083411    0.01870809777842
H           2.19805018842394   -1.53613973463404    1.01224606545818
