    26
        -50.43832378  Gyration_radius:  2.67221915109 Dipole_moment: 8.971
 S          -0.64564466753406   -1.90588551153077   -2.09395306924232
O           0.49420076423401   -1.35931523502440   -2.77730134697416
O          -1.13447371921388   -3.17364953866508   -2.49113913231021
O          -0.30997119394242   -1.90612378342728   -0.56495738214045
O          -1.81982206493872   -0.88409855916354   -2.16188605798579
H          -1.45686365264804    0.00289261044437   -1.92918147388946
H           0.66311339680154   -1.60067792312219   -0.50939136409396
O           2.08149626278743   -1.07485807164923   -0.64253712755678
H           2.01090840840063   -1.15093028689358   -1.60711411408605
O          -0.98494792541099    1.52974218848409   -1.48300374293996
H          -1.37770812369433    2.11831364600003   -2.13036920227714
O           0.25620051696941    1.24253761319326    2.28789703946099
H           0.63233337416742    1.54729173115801    3.11443208906506
O           1.50521594944978    1.46966303535411   -0.18576649226958
H           1.12400069584789    1.48409881964428    0.70835276003421
H           2.01006989169992   -0.10402293110403   -0.45473331511605
H           0.75593818650603    1.54018712779429   -0.79495685932968
O          -1.92738602900966    2.09519416045697    0.92836713594009
H          -1.20990880894420    1.73557659815792    1.48750370296272
H          -2.03236522049283    3.01490552903510    1.17817041536873
H          -1.43131288706645    1.70746119464417   -0.61687594761508
N           0.57525738933031   -1.37542419467601    2.18605809193585
H          -0.12147552701752   -1.69545625030881    1.52000762385345
H           0.34155287871456    0.23920402748075    2.28509641042031
H           0.52407743488037   -1.97404274431846    3.00115559113126
H           1.47751466013190   -1.52258325196470    1.74612576765817
