    26
        -50.44437989  Gyration_radius:  2.55280931272 Dipole_moment: 6.734
 S           1.20023756086938   -1.63746698940296    1.82396630037879
O           1.95663989493834   -0.49054327800609    2.23818081315033
O           0.84050260310610   -2.60310735847261    2.79299915735938
O          -0.09306511589536   -1.10108128261318    1.10080666270974
O           1.93435698084238   -2.35140509866402    0.65745793984648
H           2.09744728239508   -1.68666060750992   -0.05856701203447
H          -0.06433837984812   -0.08553989630618    1.23578324887839
O          -1.56598061839272    1.10912790319786   -1.77077778075543
H          -2.18686211432774    1.53916248930767   -2.35935280950463
O           2.03526086765525   -0.72916584660977   -1.40239751603447
H           2.61007332564933   -1.09667368895248   -2.07603672624018
O           0.24105269935409    1.37103321462543    1.51775016944991
H           1.03589392615556    1.10513092891927    2.00966353634552
O          -0.46496654738402   -1.37218746807777   -1.66905437469569
H          -0.57419811029665   -1.54006306997991   -0.72246814532986
H          -0.92610137276417   -0.52939361670132   -1.84172098591305
H           1.09995116608328   -1.00881094701987   -1.63364506511415
O           0.98649751960109    1.84582221252071   -0.95769390035131
H           1.53609159520206    1.06868582592615   -1.13685327285487
H           0.13256093075356    1.68249775780239   -1.39238992729758
H           0.56363701098490    1.69933934361080    0.63544941860780
N          -2.56304914796420    0.95798259171225    0.69575655665868
H          -1.82568280321596    1.40638794853368    1.23133122042710
H          -2.57617468053315   -0.01600018930449    0.97530748122092
H          -3.44518323654791    1.37334747139116    0.96836366886728
H          -1.98460123636204    1.08958165006922   -0.86185866773945
