    26
        -50.44583424  Gyration_radius:  2.46765565014 Dipole_moment: 3.010
 S          -1.24197132835627    1.36829585191968    0.96767419414365
O          -0.12526353939888    2.13354581289377    0.42578128588101
O          -0.86578375569685    0.52331900084911    2.07345772062021
O          -2.27402556884440    2.43834856333356    1.53278439530270
O          -1.97522285199571    0.67046187733841   -0.08418936465543
H          -1.29111208940909    1.06744922632998   -1.47566825451614
H          -1.78582807949455    2.91990030847768    2.19479365892262
O           2.84942395164842    0.90657389184873   -0.66591935678965
H           3.77425755104483    0.69892388777911   -0.52795895320285
O           0.54471030702027   -2.21888741327917   -0.53060886024263
H           0.71372732847209   -3.14067354680660   -0.72850145116947
O          -0.51015301255051    1.50363795117231   -1.93883333688630
H          -0.13734998123943    1.96841442640452   -1.10568363608985
O           1.16782720934401   -0.27040082970242   -2.26194241270855
H           1.91888533845310    0.16980235751624   -1.77439091319101
H           0.89378824828234   -1.02277176269332   -1.68882871203766
H           0.23774183163358    0.68333912176994   -2.16743853895184
O           1.57424695133391   -0.33019553299112    1.29331801857443
H           1.29704074071548   -1.09822501880550    0.77181938146561
H           2.37724875365848    0.61876102287428    0.15424893020125
H           0.75712495413427    0.04630240118218    1.66504448030691
N          -1.68173415098477   -1.98250318801682    0.82951550131553
H          -2.47096012069475   -2.61510093704016    0.87697372411517
H          -1.39571021300446   -1.76203131231757    1.77752008630175
H          -0.34403429216227   -2.17905318165770   -0.05413417443414
H          -2.00687417120916   -1.09723298854749    0.44116659801367
