    26
        -50.46596172  Gyration_radius:  2.46755949519 Dipole_moment: 2.855
 S          -1.08511473779742   -1.27964036973762   -1.40445290027072
O           0.34849379853609   -1.49605618276523   -1.47333006783172
O          -1.65426316030416   -1.57813241047651   -0.10555860756655
O          -1.44256303743440    0.05168764608895   -1.87715494128400
O          -1.73749133592639   -2.31273688961515   -2.41231301297920
H          -1.19006029424630   -2.20649897592997   -3.18277081908319
H           0.04709220088141    0.83774963742571   -1.94504121038364
O           2.06381140719501   -1.38400401330551    0.58138666279427
H           1.57915241422296   -1.53865172083187   -0.25511266690225
O          -0.36339310047168    1.50228921435518    2.12519339721817
H          -0.74031812711121    2.08349612711329    2.78674502487293
O           0.92138491204506    1.27722915100292   -1.91028768534984
H           1.52728274815834    0.64299511102880   -2.29957890785329
O           2.02837659315274    1.27376552542362    0.57862404845248
H           2.28028260961095   -0.42069829223853    0.57522896957609
H           1.65408299322346    1.40685673609539   -0.31527783804289
H           1.32529921169712    1.49767576657447    1.20139709789176
O          -1.53717567587753    2.05321057862304   -0.14601454147787
H          -0.95537369140843    2.62000435870342   -0.66082373158156
H          -1.68474783647389    1.26971225570426   -0.71733607278531
H          -0.85389671418857    1.69252081632127    1.27863543281660
N          -0.11223733236694   -1.20672650528185    1.95211397103841
H           0.86979507832385   -1.35728204830549    1.50604762353787
H          -0.79952505219753   -1.41756859420935    1.17019801098404
H          -0.27160675621870   -1.80740027419359    2.75233533752155
H          -0.21728710503308   -0.20379664758868    2.19714744668770
