    26
        -50.46994733  Gyration_radius:  2.45783179511 Dipole_moment: 1.913
 S          -0.87149022265891   -0.00969805198015   -2.06575179846190
O          -1.62876718600226    0.81611461270415   -1.12424392913131
O          -1.39243398448120   -1.33819725987748   -2.22087051070380
O          -1.01527739000351    0.69745140914257   -3.48336628455812
O           0.55054152450107    0.02962516710481   -1.74281239896444
H           0.58033474343344   -1.40436139697244   -0.94640249950518
H          -1.66269398888357    0.15002186293232   -3.91634321836944
O          -0.44482202769721    0.36526794143215    2.64436414232534
H           0.41558674547085   -0.07278684355181    2.55480663136718
O           0.50040868906738   -2.19684676708943   -0.36882051287112
H           0.03803767453043   -2.83929286797725   -0.91335811297133
O           2.16465256809322    1.28751023462526   -0.02369133211934
H           1.77220172941701    0.86884765272657   -0.81338419771252
O           1.83901637798488   -0.93761775262800    1.65968320606299
H           2.51204874103324   -1.50410583362169    2.03965424786093
H           1.37323407411272   -1.47173763080752    0.99138953980022
H           2.26126134594996    0.56468461674072    0.61839971581038
O          -1.76231219228714   -1.06600095412210    0.84505043298393
H          -1.07971294064625   -1.65978121442132    0.49574778641219
H          -1.07213278066639   -0.21519107110645    2.14990707831567
H          -1.95622868189103   -0.45097098457491    0.12020166063943
N          -0.23133317802705    2.11178024859469    0.70355884112548
H          -0.38034431968952    1.52688011639769    1.58850057634953
H          -0.82444369928220    1.68438311534745   -0.05856952676647
H          -0.46877293456509    3.08660406972830    0.84433953288847
H           0.78344134309741    1.97741758123422    0.42201095022409
