    26
        -50.46108167  Gyration_radius:  2.41716038878 Dipole_moment: 7.903
 S           0.53186206529310   -0.52540235212730    0.54490994808044
O           1.92860439487897   -0.23754831236940    0.18417923738676
O           0.13028210075954   -1.86752605080362    0.19893205961854
O           0.26925637209935   -0.16166826549379    1.93533830165491
O          -0.31619510353834    0.50195828623001   -0.27402534558283
O          -2.35652131040564   -1.98399204356714   -0.88774168945345
H          -2.72981657822774   -1.41329700399180   -0.19781661391627
H          -1.50408563349269   -2.25591702239495   -0.50977841546690
O           0.18176473262877    3.13411759289201    0.07753082928626
H          -0.20476971423538    2.24646037287670   -0.05832330480719
H           0.23708967696348    3.53777881668720   -0.79043316261843
O          -2.39335144558423   -0.69161631100781    1.59006708388025
H          -1.46477091846340   -0.44220101431328    1.72089203144063
H          -2.56316600452375   -1.40338490498924    2.21081989800026
O           1.36633328005846   -1.74190147043246   -2.16564592180955
H           2.05054243370593   -1.14820159133125   -1.84167254501175
H           0.96560152841642   -2.09478014292040   -1.35230113958296
O          -0.95491285061019   -0.42158627477965   -2.49457688576972
H          -1.62989741650587   -1.04710937460426   -2.12845319149319
H          -0.59492216276863    0.15795860984080   -1.23662325337126
H          -0.15051470905623   -0.95656051382595   -2.66784531671139
N           1.87618317302382    1.81314588195661    1.65471995551285
H           2.18615476477430    1.05471899314735    0.94877518507054
H           1.15563261726580    1.22221596389238    2.14756220113956
H           2.61003639180695    2.16126456259232    2.26169214157041
H           1.37358032574100    2.56307358883688    1.12981794295643
