    26
        -50.45446037  Gyration_radius:  2.74398412349 Dipole_moment: 5.606
 S           2.55980221199042   -1.12219916611292   -0.61120310802286
O           2.68953324291247    0.33741215658276   -0.71096494388820
O           1.91602233600852   -1.53750810457778    0.60891030967876
O           1.94564902497129   -1.66768026938291   -1.81404836742788
O           4.04297829532105   -1.68511485483875   -0.57388008613180
H           4.38474994710275   -1.41936662772785   -1.42232334588079
H           0.42525939065871   -1.29248709482386   -2.00792932613522
O          -2.47899032029563    1.69976163021443    0.14025139763264
H          -3.39859810925038    1.96677475744152    0.16567121234822
O          -0.49307804318797   -0.92150312818011   -2.13926116590409
H          -0.67758306817282   -1.01452728060811   -3.07492164772173
O          -0.21538175115301   -0.51218818752669    1.74923140568784
H           0.59648182030987   -1.01088310913167    1.51218619062897
O          -2.20010869966773   -1.10995749346946    0.07135484449836
H          -1.70706289886802   -1.30225765873969   -0.73906764235058
H          -0.96377687587504   -0.98270534246402    1.31721111134410
H          -2.44651442084927   -0.17185498003073    0.01083321792125
O          -1.33390997776495    1.80194718353035    2.61754569069437
H          -0.77817089791780    2.30036352283811    3.21740782444315
H          -2.14082280552071    1.81594385909707    1.04757352519901
H          -0.94203770514369    0.91281156702822    2.54980162304643
N           0.23503677416829    1.01805080578548   -0.38664842071249
H          -0.08991177182421    1.97975684936224   -0.39735615575129
H           0.00184750344042    0.54746459612958    0.53455260121172
H          -0.22361853443838    0.47018546619860   -1.13975859781667
H           1.29220535305606    0.89976092342987   -0.52516815660682
