    26
        -50.46741648  Gyration_radius:  2.48084860603 Dipole_moment: 3.985
 S          -2.19671590760998    0.75510248853824    0.59438758067569
O          -1.95189586918989   -0.66769432869917    0.37994349958173
O          -3.51639823044778    1.21804840208096    0.32081206779815
O          -1.95591100224366    0.94226078735571    2.17345811327628
O          -1.13734437552551    1.55053100407067   -0.03540202587430
H          -0.49756129183935    1.10388702875265   -1.42615325950508
H          -2.59947518524983    1.61177716693484    2.37630522750113
O           1.15924294642709    1.44562096577466    1.27902420988488
H           0.30958726082553    1.67228908328746    0.84507070584654
O          -0.02558731432954    0.83583168649050   -2.25873396033364
H          -0.30269483724950    1.46132522297815   -2.92968189793654
O           1.67208565640833   -2.09745132743221   -0.17058715920587
H           2.13388305516761   -1.30269069393556   -0.48255492414864
O          -0.52887996519380   -1.84720768921755   -1.64262010504505
H           0.90692136782948   -2.20215555528155   -0.78696785851060
H          -1.18497395165344   -1.60293218822036   -0.96868230381190
H          -0.35424532009767   -1.02457624739529   -2.12148720264393
O           2.36247632014455    0.46305409244672   -1.05663597965222
H           1.53134518276224    0.59433471102588   -1.56194521050494
H           1.76656357548680    1.23457238634848    0.55169200420134
H           3.08069933611512    0.74915392729926   -1.62204607795772
N           0.26590632179525   -0.99334298753701    1.73984357651376
H           0.19887999380021   -1.39801231326136    2.66631894385829
H           0.88727718942971   -1.56713305750009    1.08073790684531
H          -0.68575421102844   -0.92457212482818    1.28962075092531
H           0.66256927553418   -0.01002044007741    1.76628337820317
