    26
        -50.45192332  Gyration_radius:  2.54517349174 Dipole_moment: 8.314
 S           2.59368359544177    0.16646741172221    0.30763685066283
O           1.89039077059284   -0.99847540825835   -0.21498288526817
O           3.97213175130672   -0.01354841741656    0.61897537094693
O           2.57851201926889    1.21566418974781   -0.94962580986668
O           1.79124797935725    0.84469535800144    1.32191347126184
H           0.70149824471843    1.76255206745914    0.65388160421232
H           3.51195385621197    1.35759742599206   -1.06946885304587
O           0.03859250806273    2.25088071637080    0.08716399534498
H           0.47430418316270    3.06490426257745   -0.16876520126033
O          -2.63859616780654   -0.63960730077160   -0.88207600709436
H          -3.50287178974101   -0.41869927835821   -1.22856688636542
O          -0.17741603313730   -0.93000557065074    1.94898140668777
H           0.60945334068200   -0.36912976729441    1.85066481893591
O          -2.09159746742521    0.73814663949536    1.22638429135753
H          -1.45869634724281    0.10686530950013    1.65569978348233
H          -1.54487719912407    1.49044168482595    0.96814774960464
H          -2.52431725848476   -0.10539971078264   -0.03398602142816
O          -0.92743848282381   -2.68939934308363   -0.10717647233772
H          -1.24294408570669   -3.42279544625608    0.42204709394568
H          -1.70126111471395   -2.15917974820890   -0.34753392012476
H          -0.12776169235882   -1.59004640249618    1.23761805447102
N          -0.06036598485824    0.06491200993426   -1.48139171457783
H           0.69196004852490   -0.51728768310604   -0.96189818222950
H          -1.00391157037308   -0.35743131183704   -1.38324406504760
H          -0.05810386559753    1.00349261226856   -1.01371784637573
H           0.20643074206246    0.14438570052606   -2.45668061579698
