    26
        -50.46108169  Gyration_radius:  2.41707655669 Dipole_moment: 7.901
 S           0.01388967673204   -0.84915415514347    0.36826757808515
O          -0.01872867041428    0.64721475959023   -0.08499089844672
O          -1.35164368885097   -1.13397727583332    0.83515812717949
O           0.41051915405768   -1.68128364826164   -0.74190933236941
O           0.95572331960706   -0.85251831797115    1.48525970329404
O           1.74514722693110   -0.31111347062028   -2.67063924226325
H           2.32023288040668    0.12419719010259   -2.02192964312939
H           1.35696378886449   -1.04275938011558   -2.16320017878104
O           2.95041127851197    0.02342952575994   -0.17116435687551
H           3.59612241715236   -0.68576580443121   -0.13937137088974
H           2.24728681953861   -0.23115608979051    0.44721736093077
O          -0.76051916212277    2.51323495683440    1.72306580855565
H          -1.39787799865699    3.09091469229498    1.29944096196023
H          -0.34893846170250    1.98948127476911    1.00747883344981
O          -1.96775691679890   -1.41386712063210   -1.92838642695586
H          -1.10319874630343   -1.77656838709780   -1.66831155750998
H          -2.43766513257164   -1.32823791595329   -1.09325328110899
O          -0.62361180217408    0.84828943224645   -2.49037968448852
H          -0.29145239653197    0.78232340692479   -1.09972541304396
H           0.25152590513644    0.52097623066325   -2.81893858500575
H          -1.24109562648310    0.08781250068095   -2.55051946042240
N          -0.88447223831017    0.15333275463922    2.95563667953399
H          -1.17696900433158   -0.07566055716854    3.89913099097606
H           0.09295649146230   -0.16408076835847    2.72022153025203
H          -1.38016521472021   -0.40510502617627    2.17365846922856
H          -0.95668389841304    1.17004121305196    2.72818339784300
