    26
        -50.45192337  Gyration_radius:  2.54502386211 Dipole_moment: 8.314
 S           1.52969411738033    1.24296809496219   -1.72169293186050
O           0.54778845093780    0.22213756852216   -2.06599222834031
O           2.42536035379352    1.63430983846325   -2.75805402575318
O           0.61385461979865    2.56924801873570   -1.43191233936292
O           2.13608715637096    0.96232667078048   -0.42322025639223
H           1.19443618169643    1.42841351446918    0.74820087737602
H           0.97722253082949    3.17498217980230   -2.06979063938343
O           0.47134661644741    1.72394039329879    1.37184683068881
H           0.59465764262472    2.66859499925725    1.47393913819794
O          -2.12533826789385   -1.39256559014654    1.30196616676914
H          -2.79886426385695   -1.49020067303748    1.97476618723215
O           1.44096209949414   -1.61333162324010    0.12404315078880
H           1.82505780717657   -0.76166806977509   -0.14173383186690
O           0.18666195958608   -0.93935297369099    2.34683571007821
H          -1.24897628897611   -1.27640530564195    1.78803485291364
H           0.75240950218142   -1.30283835538778    1.61804097922348
H           0.35035539272445    0.01165901814853    2.32873800141882
O          -0.98710118418105   -2.47787485310742   -0.99069616794789
H          -1.47337343815860   -2.34090176241158   -0.16453877721529
H           0.73952850082734   -1.80486012685811   -0.52051509448862
H          -0.80544464504931   -3.41600871985769   -1.05766538733035
N          -1.29608909845783    0.63506398104309   -0.34262974942679
H          -1.99784560086317    1.22828272500350   -0.77192859817852
H          -0.58707551791402    0.32943950768627   -1.10333658562203
H          -0.73400421755903    1.16891711426715    0.36351625851004
H          -1.73131043889434   -0.18427559130804    0.12377846997110
