    26
        -50.46846762  Gyration_radius:  2.39936666505 Dipole_moment: 5.644
 S          -0.98547510777516   -1.17217160234451   -0.98372647288810
O          -1.61285232871074   -0.66694888323399    0.26179385002245
O          -1.17805995621109   -2.58793536044599   -1.14439380714745
O          -1.68052473610973   -0.42230801033137   -2.16000335097549
O           0.42421609106172   -0.79804345885614   -0.99332173956381
H           1.65636439277496   -2.79511591942761   -0.44303576045159
H          -1.39729774624103    0.52065827928488   -2.08583302834652
O           1.03585744194325   -3.17371656695539    0.18711127504320
H           0.17706925633719   -3.15621216376951   -0.29612771694771
O          -1.02030411180004    2.12889176020742   -1.77655663748486
H          -1.71946405869369    2.66348085187761   -2.15685544045146
O           1.40706591216802    1.30483302069450    1.59359705674018
H           2.16667290706737    1.71218950056454    2.01151341730076
O           1.64345176365825    1.50227106533588   -0.98694128635385
H           1.29543764973563    0.58940111434438   -1.10741505493006
H           0.97575471523492    2.05809571359500   -1.40553933235793
H           1.54585067020628    1.41328084897869    0.60500662317840
O          -1.28984608525392    1.89611175532612    0.80969346570606
H          -1.55502358053219    0.95873767951739    0.68388578955382
H          -0.42263253240948    1.86340573624732    1.23653469356455
H          -1.14990420595072    2.15619998451031   -0.78688337966338
N           0.35607733154077   -1.20224490536895    1.82388852149278
H           0.17176314822362   -1.48045779560564    2.78213511377819
H           0.78440992245525   -1.99464794058737    1.25970978805655
H          -0.55262607856224   -0.98835979187665    1.29049223571936
H           0.92401934584245   -0.32939490168027    1.78127117740547
