    26
        -50.45412835  Gyration_radius:  2.58081444215 Dipole_moment: 7.838
 S           1.75543044126002   -1.85101535457848   -0.79256410410290
O           2.38599161077721   -0.51822409027447   -0.85238122417987
O           2.60951002376336   -2.87958423950905   -0.31179680737852
O           0.49295417252169   -1.72339982449295   -0.03158397687303
O           1.33121597696314   -2.18290702705265   -2.27271203402516
H           0.71837304320425   -1.47909150839799   -2.51157755772349
H           0.20966357971542   -1.14364483133798    1.40384061025498
O          -3.07989190168463   -0.34329668257520   -0.75161353780031
H          -3.76791071092046   -0.14552937313980   -1.38724746233146
O          -0.37811487325679    2.29759779370786   -0.30327057632189
H          -0.70433760995796    3.18394986494272   -0.45940313060130
O           0.11394549889711   -0.64215186560909    2.26136594267746
H           0.19090605391061   -1.29747765895329    2.95584936692492
O          -0.57519610041169   -0.14929308992174   -1.77837087559747
H          -0.24421492929344   -0.73431598903451   -1.05672473170828
H          -2.23442354249797   -0.37152868783679   -1.24784022669327
H          -0.36786467504106    0.75412288541598   -1.49956627830167
O          -1.95200515301730    1.01336172104823    1.29818362389640
H          -1.04059165283221    1.85283673920484    0.31183702517930
H          -2.49775523954390    0.48778121409973    0.67990308515776
H          -1.37608401339919    0.37725146609277    1.75015932604745
N           1.69372109541913    1.12435905250453    0.94537551128842
H           1.00748193910350    1.75271377970149    0.47605590676753
H           2.04632898214816    0.41468138328700    0.17227202868461
H           2.47076622057485    1.63984870729341    1.34175839357363
H           1.19210175357008    0.56295561538966    1.66005171318075
