    26
        -50.44468643  Gyration_radius:  2.66992540939 Dipole_moment: 7.078
 S          -0.58214777178480   -2.72215181932652    0.84952198217381
O           0.54160420637839   -1.82247492442786    0.69229169992246
O          -0.40327436443975   -3.83408170561947    1.70305459650671
O          -1.80335320837487   -1.87801466516558    1.28953788639735
O          -1.01433576436230   -3.22285711994277   -0.55920572370303
H          -0.98402837282755   -2.44392344596638   -1.15253432396309
H          -1.57276835727867   -0.92960514976566    1.55930812417184
O          -0.48860066997459   -0.80713848701232   -1.49360032576591
H           0.06605667751781   -0.98948879824541   -0.70988313875847
O           1.30036274157174    2.26793801760656   -0.70329613655443
H           1.84841849156482    3.04464041729078   -0.58856361469759
O          -1.42866834208912    0.57706839813586    1.92407836191542
H          -2.26851221397249    0.81446510109747    2.32247616381120
O           1.24680638464670    0.66458083238097   -2.91393554360782
H           1.36914325942916    1.26390982779474   -2.15086925032415
H           0.13304465830969   -0.44636375449819   -2.16318414903170
H           0.89850191317842    1.19919201395430   -3.62905084022809
O          -1.36413289517156    1.55015405795927   -0.48359593606244
H          -1.25257268156793    0.70223068984964   -0.95851899964555
H          -1.42016040055080    1.00812637574770    1.01553365576846
H          -0.51155813661738    2.00409164499832   -0.58889835996780
N           1.57510804008248    0.76032778689743    1.43940086286565
H           1.46211390674089    1.67938016809515    0.10256184886910
H           1.41776143629984   -0.20425914017779    1.15281544794655
H           2.42904199515811    0.77659541777129    1.98337659756964
H           0.80614947815738    0.98765827056103    2.06117913440699
