    26
        -50.46949757  Gyration_radius:  2.56268772287 Dipole_moment: 5.889
 S          -0.39850095758482   -0.38249358296558    0.08820304517116
O           0.99865883299299   -0.37993264888142    0.56443241192647
O          -0.84297100687598   -1.70306963585835   -0.27574087715341
O          -1.25743582429303    0.29400453258425    1.05421610817581
O          -0.42965144998457    0.53415523791307   -1.16806010982260
O          -1.50621412040743   -2.39969596463070   -2.75478796629059
H          -2.41960984420319   -2.14917481875440   -2.89867835821662
H          -1.32895032023796   -2.24860694699634   -1.80262225680636
O           1.81433247454920   -2.30666450020044   -1.09460803961270
H           1.11546405298366   -2.95495789924162   -0.96776834023668
H           1.65772033002634   -1.63509258947931   -0.40545652434991
O          -0.62881305294801    0.85296987585109    3.56352948657391
H          -0.94848461613360    0.48730409712885    2.70825081208892
H          -1.36861381497441    1.33843223564118    3.93311953416538
O          -0.69000496228591    2.78995752884181    0.42311121783719
H          -0.57245556500804    2.75833573384920   -0.53034866933603
H          -1.10034129945643    1.92255163149096    0.64126782711146
O           0.66497342983088   -0.82146532271120   -2.98864842790321
H          -0.08243322986261   -1.41491064370122   -3.20354199857492
H           0.03228959556810    0.03286683787462   -1.94086444733766
H           1.27657719656896   -1.37755300154258   -2.45267354565290
N           1.24087601639194    1.78133903775878    1.91668259038253
H           1.27451005341932    0.85650215323487    1.35858700482224
H           2.16321917019602    2.14969369833275    2.11919396868120
H           0.64364847105385    2.42498514085068    1.33512321437032
H           0.69221044067610    1.55051980362098    2.77808233998437
