    26
        -50.45412835  Gyration_radius:  2.58064936542 Dipole_moment: 7.842
 S          -1.24148880734326    2.14790452908855   -0.98877136839286
O           0.17615712108417    2.16778290754983   -1.39790074380931
O          -2.14689042878766    2.56399667011491   -2.00153521499645
O          -1.53862315299040    0.80567211449706   -0.44172766162625
O          -1.34157369867658    3.13899886995129    0.23138188406740
H          -0.74635903570997    2.76883408290928    0.89213831618574
H          -1.34103964952991   -0.62573286682813   -1.06479725132901
O           2.18061292446358   -0.65123584274051    0.57770310867244
H           2.99274331476010   -0.97675792789010    0.96617974990502
O          -0.80996582386375   -1.08217366125332    2.88877789056051
H          -0.62455138557339   -1.04687193336466    3.82732364071498
O          -1.05936897491039   -1.48409330169930   -1.48901812227691
H          -1.81359349748929   -1.78156439894893   -1.99930119043637
O           0.29323889484457   -2.40535025342740    0.80407504725942
H          -0.28902786634543   -2.23863409776814    0.04659289734921
H           1.48965235022768   -1.37196056175549    0.71277391830522
H          -0.19417044860308   -2.08939800451325    1.59087878145378
O           0.10680174296042    1.08080888875844    1.52987380690524
H          -0.55949504480135   -0.20987258616193    2.51701947569601
H           0.95572940278823    0.72312747361715    1.23283824403971
H          -0.53347327891077    0.88546734743843    0.80566846201341
N           1.23025272852205   -0.08464110091610   -1.87222208327625
H           1.80224554472120   -0.09458725158846   -2.70849026078524
H           0.78532669708955    0.91627303335963   -1.71211473277160
H           0.44122378652698   -0.75670844117981   -1.93050108743469
H           1.78563658555155   -0.29928369725046   -1.01684548599627
