    26
        -50.44612552  Gyration_radius:  2.5296410481 Dipole_moment: 5.108
 S          -1.53466544789602   -1.74753233394022    0.37218389325658
O          -0.15484469254858   -2.12920860667440    0.54870501504377
O          -2.38437015412855   -1.85429227752160    1.50105779358242
O          -1.53945372476248   -0.25421570959804   -0.13224437046552
O          -2.10744907038955   -2.46116998379907   -0.85215160659128
H          -1.32291636777756   -2.52542660261339   -1.50087915098543
H          -1.43356442207640    0.39804186357803    0.62942887475377
O           0.08981271940005   -2.45038431329345   -2.11555172542096
H           0.50363068739044   -2.55907172736960   -1.24682318899543
O           2.16013911152799    1.20391589810094   -0.32554222157688
H           3.10656491432155    1.34357694593832   -0.29080686233608
O          -1.18439109946255    1.60472317900508    1.59348096276531
H          -2.01623338044714    2.02803915116846    1.81489393797126
O           0.30866000159382    0.22475377143170   -2.13426497928623
H           0.23890450880696   -1.50886126239808   -2.36210981484001
H          -0.42532841569120    0.18673875851100   -1.50333788598358
H           1.08452047934743    0.50607432850961   -1.62077489322299
O           0.04694189165743    2.88222715190232   -0.35218838291815
H          -0.34762822883715    2.66212556231918   -1.20021658409343
H          -0.72131082307835    2.19459215124061    0.93861625969606
H           0.90880424734044    2.41754772134431   -0.33945953212728
N           1.34510147496467   -0.07251338905996    1.82185761462569
H           0.61188901679734    0.48687825646084    2.24344676700832
H           0.89535944724268   -0.90508149501605    1.44028914670049
H           1.90293386345475    0.70126074629654    0.51211468383723
H           1.96889343321837   -0.37273779453450    2.56027625966166
