    26
        -50.44612549  Gyration_radius:  2.52973212538 Dipole_moment: 5.114
 S          -1.30926140435697   -1.18415838473866   -1.56049413894999
O           0.03703008315458   -1.68315483741362   -1.42173039751419
O          -2.36441348721096   -2.07003723141825   -1.22941962060849
O          -1.41966999969437    0.10293003401771   -0.65741255611291
O          -1.48381100787958   -0.57063184468990   -2.94957452743458
H          -0.57337300964250   -0.16466351424011   -3.16604189798102
H          -1.58069100833279   -0.13168270101269    0.31000653145333
O          -1.72894537563770   -0.21434449393235    1.86509880127660
H          -2.64159223352620   -0.06229110734496    2.11838551717673
O           0.91433452629674    0.23648901899020   -3.09712254281785
H           1.13549626799755   -0.56313111440415   -2.59765330572166
O           1.98042174008809    0.76619872340657    1.30922705701181
H           2.86493806481355    0.73078506103120    1.67368134587294
O           0.73822519156538    1.81207448190778   -0.93150750840190
H          -0.10428532483675    1.35466486148536   -0.79292182159924
H           1.33127171986623    1.49273824315244   -0.23073398086148
H           0.97517416286514    0.97624460441951   -2.45013588579093
O          -0.29488289002648    1.98102746250247    2.10280358051074
H          -0.45484003937967    2.56835401120330    1.35931903438997
H          -1.22261589366327    0.61455625688920    2.08379899112092
H           0.60071594863760    1.61388976669222    1.95446806924469
N           0.90264321874773   -1.62998780217303    1.28891128671838
H           1.61946837616615   -0.17735442868122    1.31260896572010
H           0.67456392236831   -1.77359994340040    0.30484721128618
H           1.38317037873820   -2.45863740015953    1.61591895955727
H           0.02092807288153   -1.56627774209611    1.78567282245406
