    26
        -50.44612548  Gyration_radius:  2.52966428962 Dipole_moment: 5.114
 S           1.75679584642940   -1.28848137619796   -0.89658166436631
O           1.87337376137510   -1.03848421043859    0.51925957747895
O           1.64509425477199   -2.63991745432137   -1.30746414183378
O           0.49310148422958   -0.49393203561643   -1.40283089047981
O           2.87091743895816   -0.54921134441779   -1.63724171738134
H           3.01286758054256    0.30531141308050   -1.09847982360667
H          -0.36207422460137   -0.99587905348087   -1.21972961416317
O           2.92585505144286    1.38670986149865   -0.00249504830840
H           2.71553292972059    0.72498286657209    0.67254697922096
O          -1.82087013806370   -1.50313622197532   -0.97022442646012
H          -2.17060883997605   -1.90743233670812   -1.76672034088355
O          -1.34282757801595    1.34873371289559    1.61231017693404
H          -1.61753265109573    1.69079497084690    2.46313894307890
O           0.37176918502014    2.09234988890260   -0.42844489977245
H           2.08714407406655    1.87791946766815   -0.15996489744635
H           0.32419172665507    1.24838770488497   -0.90141827227556
H          -0.15289242246960    1.97218773350225    0.38085704583426
O          -2.62880123123827    0.99186833449556   -0.73330638929593
H          -2.25095635467674   -0.60949483136857   -0.88276868228935
H          -2.31249566581141    1.18556663916058    0.17294546739769
H          -2.11706533883237    1.56633377328018   -1.30894993714144
N          -0.65341179515977   -1.17813053579382    1.82156848445927
H           0.30843202471908   -1.18550259586290    1.48123614831218
H          -0.67300619425216   -1.68925292941609    2.69498292823785
H          -1.07765975554682    0.38388551276933    1.75127359387610
H          -1.20487316817943   -1.69617694395726    1.14650141087432
