    26
        -50.45364656  Gyration_radius:  2.66208543092 Dipole_moment: 7.049
 S           1.30382008860777    2.13132944150832   -1.08745089642306
O           0.35039472866520    1.88701683352810   -2.17171682604308
O           2.53805034400196    2.72237934627666   -1.48029434407756
O           0.56434191796656    3.24438523642590   -0.15586497200836
O           1.38371065474678    0.96917031303113   -0.20929200046559
H           0.24853982937176    1.04522858168747    0.91133566581088
H           1.04497087721176    4.02664028308926   -0.40558605903992
O          -0.59787469498881    1.17387278604539    1.41950139385494
H          -0.53940485397990    2.06413456560206    1.77147287273383
O          -1.30696594054752   -1.89848175778012   -0.82520964474024
H          -1.83157423531960   -2.67309156485846   -1.02805738343106
O           1.36672570340752   -2.54024432253242    1.87808482616123
H           1.67797218088618   -3.44460726305563    1.92241320304399
O           1.54076617585221   -1.69475338612046   -0.64401289973704
H           0.62731616701590   -1.82285149987890   -0.93507724695603
H           1.64430837393779   -0.73345123245778   -0.53290088417124
H           1.56741322282227   -2.22303829263087    0.96364533811524
O          -1.12498589395809   -1.58540522800657    1.73735791011272
H          -1.26015726525881   -1.83782932081944    0.18035624204682
H          -0.25284906203787   -1.99127194718079    1.93882063939453
H          -0.98877979384288   -0.63573365295035    1.85998787679805
N          -1.62271548736036    0.76287016563040   -1.02777878569836
H          -1.44106926691142    0.99035795166307   -0.02221298036332
H          -0.80418445617887    1.22247085482565   -1.58910367500398
H          -1.56797310000985   -0.27522350028673   -1.12672184738505
H          -2.51979620409036    1.11612659924708   -1.34169547250688
