    26
        -50.43832346  Gyration_radius:  2.67033215917 Dipole_moment: 8.986
 S          -0.85568688827966   -2.44982586898772   -1.30114523200430
O           0.23549142269746   -2.21366086327010   -2.20585484989717
O          -1.39556180200562   -3.75547197673110   -1.21238933997522
O          -0.39951508778757   -1.95126519536830    0.11101686762270
O          -2.01425324341920   -1.46108617121193   -1.62865687699621
H          -1.61997927390888   -0.56190038121848   -1.72088707665511
H           0.58083353489045   -1.69078832111434   -0.00675978084736
O           0.48024273954946    1.90651183749967    1.72635105041597
H           0.92911487272846    2.44905219227429    2.37567742782469
O          -1.08796552655513    1.00674804478588   -1.82269869711737
H          -1.52828252026593    1.37759366998522   -2.58976027722736
O           1.99582437258777   -1.30813197054844   -0.40689550804216
H           1.84414831401844   -1.69658999692252   -1.28286825738777
O           1.50625715365036    1.26795738271208   -0.77812578839738
H           1.95895458758683   -0.32764747209673   -0.54941617359713
H           0.70676678497304    1.16836152151347   -1.31519981201336
H           1.20663486700497    1.58866062957393    0.08921423832130
O          -1.81216502351375    2.33967172840854    0.34974443193534
H          -1.45444911023225    1.46520804867012   -1.02477733457237
H          -1.04762942884313    2.15906638058842    0.93274090821117
H          -1.89932753325704    3.29326411869249    0.30196730165069
N           0.75208522276738   -0.61302813539403    2.46311624468681
H           0.77536185201199   -0.91232561691413    3.43020054701725
H           1.60309915205248   -0.93607682995216    2.01504766674581
H          -0.01294381395799   -1.09857323386743    2.00447926486787
H           0.55294435551679    0.95427648892014    2.04587906544451
