    26
        -50.45364650  Gyration_radius:  2.66220191919 Dipole_moment: 7.051
 S           2.02604004464268   -0.36045779364908    1.78652683747844
O           2.03840423778320    1.10310534382328    1.74053416616705
O           3.27427589689054   -0.97300692770497    2.09262083832770
O           1.05032080429138   -0.70701372622235    3.04410073856076
O           1.29400538876415   -0.89872716380451    0.64519741703383
H          -0.26576756511129   -0.97842107070218    0.97826572544911
H           1.69381988164824   -0.95157041030874    3.70089379629512
O          -0.71912137064111   -1.93739845707871   -2.75350255557206
H          -0.67820185450898   -2.04895141171080   -3.70354510326753
O          -0.69235262292556    1.73529688494375   -1.58135078828152
H          -1.05956127413132    2.33939079029876   -2.22681520483300
O          -1.19479753595531   -0.80740772479448    1.29265202016951
H          -1.24320261166218   -1.22759669355036    2.15344527338793
O          -2.24767487581276   -0.31159696981246   -1.28379253742598
H          -2.07488882553166   -0.62302337326769   -0.38455170762342
H          -1.33072256543025    0.95690426207597   -1.51980261892455
H          -1.82755061719448   -0.98274275299436   -1.86609343021725
O           1.25689945693258   -0.31695743282301   -1.99505064138757
H           0.09767322380455   -1.44291060922626   -2.49769793170314
H           0.77917609431875    0.52123918941836   -1.92642241617366
H           1.41623845759644   -0.59966225587000   -1.07746671608875
N          -0.33702088417483    1.72792866942120    1.08268048549500
H           0.70605253689650    1.53331739065058    1.34786918728914
H          -0.70710788531514    2.50594167682314    1.61726933923429
H          -0.40369887016025    1.90710477173259    0.05607665610435
H          -0.85123666499769    0.83721580432244    1.27795914049570
