    26
        -50.44033182  Gyration_radius:  2.68448179201 Dipole_moment: 1.939
 S          -0.98059050845083   -2.45979364875707    0.16971305201083
O          -2.26201815812066   -2.19768574104154    0.73597961239421
O          -0.69969838947740   -1.98371649234821   -1.14907564719716
O           0.10819341716739   -2.00613736488022    1.13431981302528
O          -0.79599760731829   -4.03459400496614    0.12225221407250
H          -1.27193890147842   -4.40169442862704    0.86436364904251
H           0.99843177208043   -1.93961315075030    0.54947272746241
O           0.97026857609441    2.22735053985822    1.45941293363705
H           1.46946165373428    2.85252685722818    1.98614973979455
O          -0.65471358762513    0.78304193492309   -1.54203696688423
H          -0.76796635633026   -0.13602362392906   -1.81310590259547
O           1.97892946143370   -1.83532128885040   -0.46632603443688
H           1.42627293306509   -2.08439377241438   -1.21782741342694
O           1.88636041339002    0.73079288231811   -0.67197172299490
H           2.09183111308147   -0.83369053722909   -0.54282190596590
H           1.00107216285272    0.77323785728464   -1.10270836637639
H           1.74375182745636    1.12079886324093    0.20739698981558
O           0.20577882931343    3.37331192371881   -0.89045007715325
H           0.57907955848209    2.73678263230589    0.71717999481522
H           1.02666856866442    3.40687837607891   -1.38780221243251
H          -0.30092050382814    2.64242004535110   -1.27379134312945
N          -1.60509894779906    0.66569740967072    0.93204847812900
H          -0.80113563876725    0.80786853808521    1.53309995444663
H          -1.91725621201859   -0.29444181092996    1.03022224390414
H          -2.34566558765715    1.27460773970194    1.25574455255412
H          -1.08309989752013    0.81179026364838   -0.63943835501839
