    26
        -50.46843468  Gyration_radius:  2.53789193502 Dipole_moment: 4.850
 S          -0.52710910953046    0.70864686348922    0.27045636481339
O           0.02387720161477    1.97225447426109   -0.17321770659442
O          -1.47805288792850    0.16515823376630   -0.69827583185559
O           0.55890411846282   -0.26836886499414    0.51046255989985
O          -1.23832726795565    0.93865762100630    1.60677427596861
O          -0.24826627292521    0.96016079639727   -2.85476668278401
H          -0.20896705331904    1.90850926052870   -2.70070038399561
H          -0.84269844809844    0.62313577193822   -2.14227359545381
O          -2.46760744752291   -2.20195221774119   -0.11631966352229
H          -2.06968867853026   -1.35595616652434   -0.42012279227381
H          -3.37403271138442   -2.19431880357343   -0.42874774285589
O           0.63693784036503   -1.79564762166691    2.69997179246355
H           0.68940895206911   -1.29703211077595    1.85898863858299
H           0.99590094804458   -1.21897099206552    3.37642033910998
O           2.55138691233942    2.43716834860376   -0.70964220206719
H           2.99929531693557    2.68469274294910    0.10038530986447
H           1.58960984807324    2.40564610722018   -0.48736847291248
O          -1.99972870453332   -1.34494925329772    2.37499856667698
H          -2.24032664185163   -1.80515603991930    1.54037569160341
H          -1.13157715954698   -1.71561612959044    2.63657162716428
H          -1.60515881971483    0.03502168743476    1.94211355045800
N           1.90996958553000    0.04506326288754   -1.65954558488037
H           1.41580103304308   -0.23777005065168   -0.75197014642625
H           1.12418319126727    0.34189182840017   -2.31320484350401
H           2.45133636525389    0.90617468808102   -1.41764133928101
H           2.48492987984425   -0.69644345615972   -2.04372172821203
