    26
        -50.46373117  Gyration_radius:  2.44884893722 Dipole_moment: 3.704
 S          -0.99335381938857   -0.98815908811952   -1.40025862690278
O          -1.24026311815192   -1.00561506549248    0.04665094244373
O          -0.53398118425742   -2.24617227497977   -1.90223603019768
O          -2.43326485632102   -0.72630023495973   -2.05748678868573
O          -0.20356127908070    0.17371749795702   -1.76947317378430
H          -1.22706474810880    1.47625075668600   -1.48891992053827
H          -2.68772256777362   -1.58903131074711   -2.36945363488426
O          -1.89207102492321    2.08616914703438   -1.10182157944057
H          -2.73979804572474    1.72061053481619   -1.36233559880221
O           1.93324137924630    1.70030231152483    0.88178343211965
H           2.21184219383004    2.48040115335279    0.40039380623141
O           0.96373365842084   -2.38757935324915    0.55739220389927
H           0.97548861705373   -3.10139914936955   -0.08536733995940
O           0.88236679767117   -0.35177669730101    2.71871662700724
H           0.08461310405490   -1.97480897005737    0.44949282946886
H           0.97545127563274   -1.18963871071287    2.25375978985614
H           1.63863960190011    0.18223141339706    2.45996653950389
O           2.21400712383817   -0.32601370594664   -0.71412457545012
H           1.44628334453410   -0.14319099666844   -1.28515283701363
H           2.14005810596551    0.92391708087102    0.28280275153410
H           1.97502499833313   -1.13409675770528   -0.22102172212926
N          -0.70545202384718    1.30786738106469    1.16086008424024
H          -1.24631129490462    1.89512431440560    0.49239216687796
H          -0.87108100477671    0.31362396771402    0.83734425610563
H           0.32946287480494    1.50764260545827    1.08633692514405
H          -0.99628810802052    1.39592415103282    2.12975948335450
