    26
        -50.44033179  Gyration_radius:  2.68412808306 Dipole_moment: 1.944
 S          -1.34782041049374    1.11914382837675    1.99180383437199
O          -1.68519328498123    2.37663555052359    1.41172880235680
O          -1.91589453295791   -0.06981337086273    1.43654573030886
O           0.16749630619629    0.98544388286221    2.07946238153253
O          -1.80122531832484    1.16042510164901    3.51128200565403
H          -1.71973665969630    2.06367730058925    3.81040483536292
H           0.35451797778072   -0.05547475387572    2.22142466179073
O           0.31517452419577   -1.46903322034373    2.29107122266186
H          -0.64099028579771   -1.58463446908165    2.22444378846843
O          -1.21476865477828   -0.73683392874361   -1.18542329475121
H          -1.78774974715820   -0.73105341853719   -0.40914444168917
O           2.38534173152668    0.07330897949597   -1.52674799763698
H           3.28101049540877    0.02149259475210   -1.86230157023643
O           0.98977543061327   -1.87944917102446   -0.16093058553109
H           0.67607986446730   -1.73047243875083    1.38377198961640
H           0.14186185173891   -1.57409199761502   -0.55972395414279
H           1.63812309709533   -1.20794812564539   -0.43357471528464
O           0.67169710626181   -1.21356608574384   -3.20735888162422
H          -0.16722640393573   -1.03613755955240   -2.75726374111957
H           1.79882405921997   -0.24880426566792   -2.24494677836118
H           0.86580999327709   -2.13838643505583   -3.03571122731473
N          -0.15606069502633    1.68909598564207   -1.00862742860938
H           0.82106112531452    1.53742021234248   -0.78480587759885
H          -0.85623326166127    0.19573623234348   -1.21460868371135
H          -0.61372262191370    2.09856770127654   -0.20124288815361
H          -0.20015169654776    2.35475186098803   -1.76952721656080
