    26
        -50.45396981  Gyration_radius:  2.47093058481 Dipole_moment: 6.071
 S          -1.32266420436372   -0.95516689683959   -0.88281923649857
O          -1.28073853623609   -0.21960855278284    0.46054552078759
O          -2.64684849935514   -0.96721963992580   -1.39254746571968
O          -0.30254698404423   -0.40567403889973   -1.75270012484793
O          -0.91002165801461   -2.40236599731568   -0.51005627951375
H           0.01671395458242   -2.37481731392814   -0.14281276477754
H          -1.28023998892041    0.98876220579256   -2.26457607502011
O           1.42950739611150   -2.28001532417559    0.63047123304119
H           1.68913993519676   -3.16104547068684    0.90643264072501
O          -1.96416583372449    1.66590072609071   -2.14336895304837
H          -2.75726568815382    1.16478901700243   -1.93078114143899
O           0.63601646047432    1.33103339501514    0.77918818552343
H          -0.45711674493746    0.44818313596831    0.59295575486732
O           2.18678680498745   -0.00919396257557   -0.86882146046335
H           2.29910815528767   -0.85201442399810   -0.41145806636217
H           1.40212016543761   -0.13825770575155   -1.43288036437988
H           1.33699105605190    0.95067474752167    0.18611228503734
O          -0.41448550788755    3.28679563326694   -0.65538774323903
H          -1.10248903256890    2.79146987583467   -1.14817403937231
H           0.30127610814045    2.14794423908546    0.33180533468196
H           0.14378779986520    3.69266068520939   -1.32113438997376
N           0.58634088793835   -0.91365513324732    2.71500606681236
H           0.81092491857684   -1.09908947765263    3.68453853345801
H           1.16146126277117   -1.77592569833943    1.46561161759104
H          -0.42076195055385   -0.95475171088974    2.60390428965473
H           0.85916973336423    0.04058767620822    2.50094662247245
