    26
        -50.42724551  Gyration_radius:  2.98043028427 Dipole_moment: 4.956
 S          -2.69218690827272   -1.91232728701664   -0.81739078164925
O          -1.70923121752933   -2.69775545308674   -0.13059857846535
O          -3.90924180731723   -1.60597564100295   -0.16333620411516
O          -2.01817924448351   -0.63547858419577   -1.37608929242229
O          -3.02038676857652   -2.66714798324901   -2.16953553031900
H          -2.20425375013754   -3.06817634025092   -2.46136198766198
H          -2.02048203584200    0.01326951865070   -0.58459730215960
O           1.45884484082541    0.30489975045549    2.08773299241446
H           1.17710307158568   -0.08091520246856    2.91725539300818
O          -2.07535561518964    0.83091509797534    0.65714866817003
H          -2.85379848785059    1.39056025742290    0.66411164389476
O           1.60163387349813    1.30629595421087   -1.44300459374966
H           1.90824932782868    1.79669951079397   -2.20622331889328
O           3.46423093398259    1.29601557186560    0.52490497196752
H           2.89046695807222    0.86324558718992    1.18375756653902
H           2.36470683096202    1.22905145765020   -0.82927401242859
H           3.62895041539533    2.17977545566779    0.85915795700931
O           0.11388115532771    2.21997399395257    0.68131270745177
H           0.59597870183241    1.67411365234288    1.33155272503130
H           0.51714383175167    1.98684751980319   -0.17495224443699
H          -1.26810282855418    1.43032531685088    0.68421643529757
N           0.78165526674903   -1.24387508419563    0.08592862355686
H           0.69918252657488   -0.60198309625067   -0.69585473708049
H           1.49827520352936   -1.91939603473719   -0.14943475479861
H           1.17126409588552   -0.34161162101302    1.35952769177716
H          -0.10034835062248   -1.74734630677947    0.16504595194977
