    26
        -50.46373127  Gyration_radius:  2.44873711074 Dipole_moment: 3.705
 S           1.96956347199943    0.07112740388509    0.19792173431989
O           0.96049138472980    0.43388619605691    1.20035269167960
O           2.73141532510395    1.19283138115258   -0.25698456898566
O           2.98817845531233   -0.89499233815204    0.97439835831536
O           1.38476412712881   -0.76517979055445   -0.83585047015458
H           1.02049034839738   -2.20349634573967   -0.04836025546113
H           3.73417878791634   -0.32864690736472    1.14490904861896
O           0.73228224008630   -2.86892898602136    0.61369258186370
H           1.47008521327978   -2.94368934828767    1.22208454379923
O          -2.29907667700687   -0.50356779647675   -1.36583706351916
H          -2.39897816024054   -1.23054496806256   -1.98184257690722
O           0.23153179804430    2.62254788028047   -0.10598975115456
H           1.04999016420966    3.05789235624246   -0.35774825423863
O          -0.26131227877238    0.89479535147093   -2.15584112664892
H          -1.57132159011689    0.07302621831450   -1.74292210240697
H          -0.17358934707765    1.66385846910117   -1.56075334950447
H           0.43384604317460    0.27496050833139   -1.87045445628412
O          -2.33705717147278    1.46283291803963    0.83008969543827
H          -2.70802890560009    1.19775553600094   -0.01623999545773
H           0.51096413125253    1.90023612284272    0.48991473949797
H          -1.63601732395191    2.09140176487746    0.62928798517745
N          -1.18920081438838   -1.05737891321609    1.01244511991181
H          -1.67272804156238   -0.86947156602293    0.09191082030164
H          -0.70045306329077   -1.97669142898513    0.99432490074603
H          -0.41443063263532   -0.34517621052089    1.12651907142645
H          -1.85558747451937   -0.94938749719800    1.77097267962752
