    26
        -50.46672129  Gyration_radius:  2.36607203527 Dipole_moment: 8.156
 S           0.30014770020989   -1.44371449023233   -0.04864106133044
O           0.49779435569464   -1.99455777795882   -1.45959062671413
O           0.90928163769820   -0.09815744875883    0.00712855044421
O          -1.12110606086820   -1.35457203124386    0.25873315072357
O           1.01089856818744   -2.31560257235643    0.88201672992301
O          -2.34903733912436    0.48411753986065   -1.25114835215124
H          -1.98149268277489    1.23410116876138   -0.75813142009638
H          -2.13153308573077   -0.29578074695732   -0.70811023650184
O          -1.22945149510960    0.21931658181342    2.34853655531381
H          -1.37611046767002   -0.44066996962825    1.62851180122077
H          -1.23577829565903    1.07542579577438    1.89540937141461
O           1.53829842499734    1.29778917449545   -2.16067208089238
H           1.40473104096083    0.78213645944569   -1.33682309031680
H           2.35980591004806    0.98644752331987   -2.54308912953957
O          -0.61745763972964    2.02395157217901    0.32263530610338
H          -0.03210755518469    1.24223125651984    0.19262908699726
H          -0.23057555639999    2.72677377193107   -0.20286415877978
O          -0.51291826108772   -0.27591124777913   -2.99896200952941
H           0.14998475181943    0.43723036570628   -2.91563712679069
H           0.05493693410114   -1.35020404337779   -2.14219041399429
H          -1.31292569741924    0.03773125906862   -2.50828126479082
N           1.20466746405224   -0.58684171485350    2.73664858740222
H           0.19382026867155   -0.18694424379772    2.69734643185480
H           1.45737498785316   -0.90751230146790    3.66621932815742
H           1.19149366626041   -1.40842702251920    2.00728547645386
H           1.85725841620252    0.11164312205421    2.39104059541546
