    26
        -50.45793657  Gyration_radius:  2.82337291557 Dipole_moment: 4.336
 S          -2.65825360157475   -1.35807225960033   -0.55284328499893
O          -2.27399536209342   -1.34515805319278    0.85364070716774
O          -3.66219388333910   -2.30726209886962   -0.90483760271440
O          -3.31703250811124    0.09877194338646   -0.82202030317870
O          -1.46834496564069   -1.34709620693386   -1.41118985421685
H          -1.05291771773834    0.22907195323210   -1.53615904273529
H          -4.23979979906782   -0.12831091941274   -0.78636488333364
O           0.98929336836686   -1.93397249116199   -0.71129875621785
H           0.06615967500517   -1.80308587460608   -1.03756105873663
O          -0.76035110874065    1.15928479627885   -1.37248190189784
H          -1.56528349630238    1.67931128000523   -1.41255658424957
O           3.02662148638957    1.54843507982592    0.84885702360045
H           3.47825825511142    2.35621941058658    0.60254551644452
O           1.28031839195733    1.36274019191425    2.86357385064733
H           1.20136964862319   -2.85515100026679   -0.86304841959620
H           1.73160425656521    0.99226961796492    3.62294898994274
H           1.97031127570333    1.52456668639115    2.18136696233186
O           1.98611143632960    0.56594939847174   -1.41504742361760
H           1.12975605108017    0.95823020947743   -1.63135296140261
H           2.68330700349049    1.16545667549949    0.00792179414236
H           1.81788388614643   -0.38447677231124   -1.31880301122222
N          -0.06381676034706   -0.02670242055576    0.98447714185270
H           0.28514261747953    0.44985526473222    1.84202909930253
H           0.62044841618762   -0.71644422965409    0.64730571736906
H          -0.98916906223759   -0.54726388317121    1.09752279401941
H          -0.21542752310756    0.66283370180690    0.22337550128693
