    26
        -50.45793706  Gyration_radius:  2.82313190147 Dipole_moment: 4.351
 S           0.25996204876511    1.92465129769842    2.33359616408745
O          -0.09251949788370    0.56306683769921    2.71854596157458
O           0.00607003689097    2.92409884518404    3.31810332168858
O           1.86905307856836    1.90122880224830    2.13458182143881
O          -0.23564178321267    2.22270756878169    0.98526325564414
H           0.91087403300507    1.64099369681240   -0.02500134983235
H           2.14357902611898    2.27754965976926    2.96363711830714
O           1.53500346288190    1.07404177862980   -0.54135885868911
H           2.39318797371545    1.22907209310432   -0.14207707517893
O          -0.32033912442203   -2.38171536539356   -2.54932359441005
H           0.16380674304311   -2.61084043397467   -3.34318699993621
O          -2.06965398519731    0.90822044641543   -0.35044853037472
H          -1.44941568651836    1.48666147962419    0.15595672786357
O           0.17978017242436   -3.41106854253058   -0.13373477198941
H          -2.94414039167740    1.27830408016592   -0.22828122718297
H          -0.45211724253244   -4.11109007042218    0.03439475504312
H           0.04499191305876   -3.13271486764224   -1.06751246552791
O          -0.36460218755477    0.29480174162432   -2.46021178271911
H          -0.37379305022110   -1.39746574896374   -2.54232518950537
H          -1.09995554800741    0.59707426787959   -1.90444242415359
H           0.43167355453522    0.66564315174792   -2.05726308178803
N          -0.10709679129121   -0.81687859818334    0.54243346859721
H          -0.09411605164930   -0.39446760527245    1.52300272038719
H           0.64667159565654   -0.33622255421441    0.01445500644565
H           0.02311591490605   -1.84917006440834    0.50204326594187
H          -1.00437822320583   -0.54648190644362    0.11915377423875
