    26
        -50.45168974  Gyration_radius:  2.43181295895 Dipole_moment: 1.668
 S          -0.80456909749934    1.44401345164693    0.74156954915959
O          -2.15326351912746    0.98766793679762    0.92528202627780
O          -0.42681306958452    2.69660284775837    1.28980478856671
O           0.15249303350778    0.36170222975879    1.31702290138570
O          -0.48465169585379    1.47485030169711   -0.77252220016789
H          -0.76134351252339    0.62717505431043   -1.23822503394955
H          -0.24934600111982   -0.55946861047324    1.30301411429702
O           2.65535170899132   -0.28192677177714    0.14317844608860
H           2.45905820177400   -0.37548613886544    1.07785624090645
O          -1.02706886612734   -0.71773173131200   -1.98714285820659
H          -0.84879585601384   -0.61432330882098   -2.92359796903917
O          -0.84097977941073   -2.02401008657910    1.31887301532530
H          -1.11302619760185   -2.26444748200413    2.20626575035262
O           0.90968737945649   -1.99497520527152   -0.90318469234410
H           0.51366062203433   -2.33845979849949   -0.09348507433071
H          -0.26011057655677   -1.26745594253339   -1.61376563534830
H           1.61636547357681   -1.36663548343205   -0.61197994937780
O          -2.92435083689172   -1.36668744388257   -0.05928351656800
H          -1.68809515065342   -1.89959142081753    0.78900957741471
H          -2.90960939063886   -0.46469220370110    0.31620755857325
H          -2.55873108437507   -1.27660933720597   -0.95012559415968
N           2.14814509902017    2.37033851063187   -0.05011318041844
H           1.87704120118936    2.64943140722796   -0.98500955953981
H           2.87758998294658    3.00227920257067    0.25843035675950
H           1.33582706527287    2.51899698260818    0.54286836854482
H           2.50553485623458    0.67944304019402   -0.04094740020540
