    26
        -50.45267977  Gyration_radius:  2.7450249855 Dipole_moment: 5.913
 S           2.35672961722853   -1.23763863271770   -1.31688416057274
O           1.15089683313651   -2.04614069969645   -1.50893787749668
O           3.58113843574729   -1.96726728341103   -1.32538772952038
O           2.41168825176677   -0.27447076124117   -2.62443570624566
O           2.17001521862249   -0.29656788432972   -0.21425767245618
H           1.40951724131164    0.99603867052683   -0.87168972215060
H           3.04384052554352   -0.74358252042456   -3.15857398208185
O           0.41159159173502   -0.14918704833945    1.81137936334861
H           1.24518378136764   -0.25841883703620    1.31807511531381
O           0.76665633078405    1.60632292161494   -1.31263300541437
H           1.12256606428664    1.73460585754038   -2.19386427630460
O          -2.88081781198726    0.74756191364660    0.61690180688042
H          -3.66702408388881    1.21793936743744    0.89680482187588
O          -0.54234274230497    2.24486717410499    1.10775521488153
H           0.21363402411114    0.81510680239827    1.78436477669391
H          -0.06318736063059    2.35722063388746    0.27665031543969
H          -1.41492484933653    1.88602001786944    0.87442139596738
O          -2.06218669078250   -1.11864670506467    2.43544190353850
H          -2.70262629212529    0.08424093172426    1.30988535801221
H          -2.08200491264682   -2.05205234967829    2.64941651686728
H          -1.13003381131869   -0.84388194947496    2.47175305012181
N          -0.70678678807897   -0.55034535004627   -0.61546169595400
H          -0.03136395647310   -1.27796414090442   -1.04436791014561
H          -1.69561551734700   -0.74714185926843   -0.73656260260116
H          -0.45450788662955   -0.49123401691290    0.40324723406783
H          -0.45003524207793    0.36461574783940   -1.03304051206286
