    26
        -50.45267970  Gyration_radius:  2.74497637866 Dipole_moment: 5.911
 S          -2.26279580767363    1.06986033124691    1.59849382743163
O          -2.65461860469430    0.83672603993345    0.20690270774545
O          -2.98302909157173    2.10425508907837    2.26410492061699
O          -2.66038097711915   -0.30511184648839    2.36756906155020
O          -0.80670090458532    1.11295001828891    1.71841182669585
H          -0.33603102671585   -0.45000185453376    1.85013962011174
H          -3.48666761974889   -0.04905499472174    2.76341027597009
O           1.54143602178360   -1.47980721486191   -2.16136246975415
H           2.21240707874477   -1.97236654443922   -2.63551770765333
O          -0.15231561422199   -1.41061516754714    1.69648695208760
H          -0.81327197549719   -1.86848920483941    2.21914368431531
O           1.18367997360628    1.43806859265862   -0.05619719601458
H           0.56712140722595    1.60313627057069    0.68056955232897
O           1.57700201370622    1.18817687145644   -2.74548856978329
H           1.61312229647877   -0.55800356686852   -2.47289291820166
H           1.16476928510001    1.87197658094346   -3.27441497428283
H           1.57661906939183    1.50782683149014   -1.82702468720054
O           2.34655278916218   -0.90644748991990    0.47976527917671
H           1.68899073681781   -1.26249829174269    1.09112064025814
H           2.13275633210635   -1.27116551977753   -0.39531062677813
H           1.80570914471573    0.74786402837153    0.27017540808120
N          -0.65644855287984   -0.40940520532398   -0.76370638309614
H           0.09432565125709    0.32409052410735   -0.70497323970876
H          -0.66053473869086   -0.85634677973855   -1.67551103244817
H          -0.45600314202553   -1.09297059065397   -0.00877023853002
H          -1.57569374467519    0.08735311329998   -0.48512373291115
