    26
        -50.45793694  Gyration_radius:  2.8233862848 Dipole_moment: 4.351
 S          -1.40568919731846   -2.66889107514549   -0.34671509961358
O          -0.26218143637346   -2.70840293487352    0.55723141836027
O          -1.83729346911448   -3.93384775466465   -0.84306288126133
O          -2.63243474257187   -2.10701752113910    0.55255660839804
O          -1.22757107707583   -1.61926554063505   -1.35619410201947
H          -1.74863721185291   -0.24762555834815   -0.63546610795008
H          -3.07694404591606   -2.92316982074812    0.75408380993601
O           1.01018851688377   -0.41776981369938   -2.00812691308799
H           0.16855826964949   -0.91401919456319   -1.86294474617891
O          -1.87275236445114    0.54124966409327   -0.05236948038966
H          -2.62840010293419    0.32281407582262    0.49648406879347
O           1.74384735981179    2.98894697541211    0.55413379216108
H           1.51042898551490    3.90462107893133    0.70964322685579
O           2.03707594702781    1.16494129153270    2.48589969274835
H           1.95501025192185    1.91850186820954    1.85901176856429
H           1.44916414030907   -0.84098709546144   -2.74625231195767
H           2.97173265742689    1.06711592889921    2.67148171802189
O           0.06752629678372    2.11284084798316   -1.34227412141003
H           0.44621513372399    1.33916248910854   -1.78835000116247
H          -0.77792925794238    1.81378017040423   -0.98210779862772
H           1.15565214093202    2.68221110285963   -0.17492037447790
N           0.60893575194579   -0.28880318292209    0.72065234274264
H           1.12268328537052   -0.18256813522954   -0.16379028815974
H           0.33908635317893   -1.31932775951311    0.79322443389031
H           1.16717149206104    0.08137844716860    1.51789840944421
H          -0.28344368705859    0.23413143652704    0.63027291641139
