    26
        -50.45168981  Gyration_radius:  2.43180974143 Dipole_moment: 1.666
 S          -1.07938243951710    1.43358316347950   -0.24241868026976
O          -0.19343325264358    2.53485715182179    0.00928785303168
O          -2.37961629016548    1.70378652981014   -0.74107937314087
O          -0.37601593726952    0.46764162099232   -1.23786704860917
O          -1.23343534784937    0.60384502238982    1.05497476234044
H          -0.34796589163029    0.40569713231484    1.48927444502626
H           0.62628599551785    0.52226130031145   -1.18841096009916
O           0.99869079418210   -0.06472511906316    2.12643567357360
H           0.82987887433099   -0.53443876341885    2.94515079197355
O          -0.62786439353201   -2.35640279437230   -1.09527651183759
H          -0.46318659917528   -1.87231608225391   -1.90730116621411
O           2.20487760571213    0.58146178332592   -1.16109224880906
H           2.53407754791811    1.07120548398724   -1.91678037386739
O           1.56268529473026   -1.75942204202844    0.29138446671576
H           0.73609543796213   -2.07025900822324   -0.15471953049720
H           2.02786387678078   -1.22264007499927   -0.36124640267422
H           1.26306041296144   -0.77040937753573    1.44679139001781
O           2.27059125102145    2.09935600461514    0.92797050494340
H           2.05243193644345    1.47941356373374    1.63751291205814
H           2.36639814506205    1.16453046116077   -0.35628963915175
H           1.42052951838069    2.51051461153636    0.67651439701992
N          -2.95720172005280   -1.14314479481183   -0.43864776557725
H          -3.79335013719309   -1.46593934208603   -0.91121309074810
H          -3.14136914255168   -1.16306574791364    0.55691053464134
H          -1.48474375972481   -1.98791720927787   -0.76281496129530
H          -2.81590176973992   -0.16747347352046   -0.68704997857409
