    26
        -50.45316390  Gyration_radius:  2.76368752733 Dipole_moment: 6.481
 S           0.84689617726794   -2.87385036131157   -0.46449278483734
O          -0.27364085147033   -2.83256175991294    0.47674713762130
O           1.73643656779605   -3.97568962442665   -0.30118860197088
O           0.15057941819840   -3.08782453897387   -1.91686700040411
O           1.46498034468430   -1.55379970960262   -0.57770650427955
H           0.51443492966401   -0.75832989239947   -1.64146873529848
H           0.28741253209226   -4.02139899625922   -2.03828573374890
O          -0.22428240451311   -0.30101122931228   -2.11621381820580
H          -0.51382880461210   -0.93474554184181   -2.77515610074049
O          -1.75341286763986    2.33311293366995    0.66616674910006
H          -2.24822215435700    3.15186689219613    0.70915746811965
O           1.44124923411840    0.68725549513093    0.90127692741408
H           1.75138418703604   -0.13216411385135    0.47457512020022
O           0.44861557132110    2.20860080843784   -1.05316214963120
H           1.31952550819500    1.33300280274736    0.16525559757797
H           0.28387290373074    1.51327117467038   -1.70368584514176
H          -0.39747133891267    2.35079269938949   -0.59505725352925
O           0.01282128363415    2.13499028313027    2.70941200359235
H           0.50160398588618    2.87939549893147    3.06323931699787
H           0.66674037081898    1.57074186185582    2.25987935914733
H          -1.18414550200600    2.31076675002300    1.46474901627803
N          -1.00172459299668   -0.39045637473145    0.47562883324899
H          -1.04790390503965   -0.19663627474656   -0.54205104198448
H          -1.83333320581115   -0.06123944315093    0.95578864554953
H          -0.80557061002230   -1.45080539357526    0.57098973204298
H          -0.14301679708502    0.09671607388618    0.83246967292294
