    26
        -50.45267966  Gyration_radius:  2.74508389891 Dipole_moment: 5.916
 S           1.04152516469740   -2.77329627330829    0.21308578649783
O          -0.37416573693366   -2.70386989359822    0.58146438236773
O           1.77919298606889   -3.81793130449278    0.84246043165542
O           1.03114351721714   -3.13697559487843   -1.37052142620007
O           1.64384450781626   -1.44203305949380    0.24774570700758
H           1.29897772818414   -0.77244317410465   -1.20607823996737
H           1.18920403232779   -4.07432539501388   -1.33411812216081
O           0.85119990224191   -0.39251142316589   -2.00314073560994
H           0.90285577900248   -1.08732540820565   -2.66211411640784
O          -1.92421078453649    2.32417415269563   -0.36548916221285
H          -2.30208345738847    3.17641130826772   -0.58600821674391
O           0.90906389300693    0.88934760343946    1.36104914705231
H           1.40128313824746    0.06855104669802    1.17614472282523
O           0.83304416531992    2.22838532385878   -0.94930816293074
H           0.99916480263526    1.49275176299062   -1.55278931315190
H          -0.13176089697957    2.33956013644773   -0.91220693768330
H           1.12414702185811    1.49883878914171    0.61807063330901
O          -1.36470051515947    2.07393030280013    2.29612524446615
H          -1.68489609846537    1.72419683455694    3.12836527041197
H          -0.45162379390463    1.75563153875653    2.19266282736060
H          -1.80520220750247    2.32469872178720    0.60289794069403
N          -1.03388803343209   -0.33067032562654   -0.06644281060788
H          -0.90450465219427   -1.36138985637873    0.23431589864966
H          -1.99289386329770    0.00281104722041   -0.08219874888884
H          -0.44666936257455    0.23654953856527    0.59571362015892
H          -0.58804722624324   -0.24306640892759   -0.99968560990344
