    26
        -50.44974521  Gyration_radius:  2.55336822532 Dipole_moment: 5.639
 S          -2.23322013843224   -1.31974581213963   -0.63413680597945
O          -1.67024449423875   -0.64121370835528    0.51388544566076
O          -3.47259452306884   -1.97478358236003   -0.45944821281678
O          -2.35301936020570   -0.29668057912831   -1.79386126175514
O          -1.18473002274922   -2.34178738811424   -1.14709568707655
H          -0.24886522676243   -2.03781382496272   -0.96636587209035
H          -1.64120098024935    0.40132559507353   -1.74842312775038
O           1.26984511585906   -1.73274931585096   -0.59038102834155
H           1.77102674405754   -2.54628832852462   -0.66699905079400
O          -0.64374648200478    1.65682050595026   -1.65994488251213
H          -1.03733389264345    2.37963556899991   -2.15172109561961
O           1.67667598782306    1.63221232989286    1.47406385217975
H           2.20803214501396    2.40888026226931    1.65242937782794
O           1.96707239438293    0.89987951731409   -1.05974338042146
H           1.85692215243283   -0.06365913770946   -1.02100079318344
H           1.14681761906638    1.22912500728640   -1.45790163723013
H           1.87389803395260    1.36949204744220    0.53768761541963
O          -0.96978176663480    1.93730141991803    0.86915946549525
H          -1.34764964138344    1.04248698119276    0.94230435571709
H          -0.06436963102331    1.87364236380110    1.23398338755798
H          -0.77548454284035    1.86873088366814   -0.67710037787340
N           0.79535180365146   -1.16160367436330    1.88468930256740
H           1.15330942662354   -1.54233395634960    0.41305382023430
H          -0.20299375891677   -1.02881571770663    1.73758144759678
H           0.92829495157872   -1.76046899750425    2.68825530460096
H           1.19798806671234   -0.25158846976293    2.08702980863182
