    26
        -50.46788059  Gyration_radius:  2.39889259258 Dipole_moment: 5.652
 S          -0.90305843820363   -1.36059403966143   -0.77114882212912
O           0.46089833464318   -0.85271009129564   -0.86928400893934
O          -0.95597915865361   -2.79705308006372   -0.80671940501495
O          -1.54007993727259   -0.81058453137462    0.44880176255444
O          -1.70562732913688   -0.79085116003974   -1.98122504177119
H          -1.53880966254716    0.18196040694675   -1.99621573482744
H           1.91647037239015   -2.69959695498871   -0.19896412546492
O           1.34079915887930   -3.04350486845590    0.49031563745181
H           0.47065214220410   -3.14510695249596    0.03845927477898
O          -1.12026206923850    1.80996199756638   -2.03997620512022
H          -1.21592075132893    2.11692264817930   -2.94307127024210
O           1.13219727160808    1.66024650670948    1.46962650758045
H           1.30659227384248    2.33328539492998    2.12874814366867
O           1.38496182831743    1.53427862465571   -1.37290568895548
H           1.18792734072824    0.57520039348449   -1.28567385673126
H          -0.13706254000891    1.79297197603466   -1.84805116294049
H           1.54534103408535    1.81548903059965   -0.46239689290728
O          -1.37077853892750    1.80925748298841    0.73861938398182
H          -1.57894077963208    0.85063006862591    0.68168028320385
H           0.17494203299905    1.77652796183050    1.19950948453114
H          -1.46536957101428    2.12714875062523   -0.16834906826341
N           0.54420473327300   -0.97384823059285    1.94513155059937
H           0.43834882072575   -1.17133362006860    2.93488981657091
H           1.02671708208424   -1.77239305546021    1.43605321551249
H          -0.40720527080066   -0.90931543953756    1.44710250503768
H           1.00904163098438   -0.05698923914341    1.78504372783529
