    26
        -50.44614460  Gyration_radius:  2.6268438845 Dipole_moment: 5.847
 S          -2.13721368883036   -1.64679609200623   -0.91385772690671
O          -1.80013308877337   -0.74407413895084    0.17074062215025
O          -3.48828883213256   -2.04300873855218   -1.02375335165322
O          -1.65269347079768   -0.98399998367462   -2.23058216775353
O          -1.23506111511955   -2.90307893396282   -0.80579927953818
H          -0.33079025165353   -2.57279752792478   -0.58162909537951
H          -1.29965593185141   -0.05111071590395   -2.10549460540131
O           0.74362826771729   -1.39616447968676   -0.05415384359365
H          -0.08484771310786   -0.93381846394489    0.17164398001819
O          -0.82469649377014    1.44984505316493   -1.95020103303359
H          -1.37448588899170    1.99796999467573   -2.51260357296625
O           1.28551100738143    1.82441288652973    1.33679584315711
H           1.67748409795000    2.69202754728963    1.44434588013966
O           1.79001001983484    0.89382247414126   -1.08858393452205
H           1.60100412686092   -0.04126772635881   -0.88337690933337
H           1.04358795046759    1.18831389131084   -1.62778801171638
H           1.56110126033416    1.50723269052737    0.43572981276958
O          -1.32802116036415    1.89811795472199    0.54033398839511
H          -1.69067935890217    1.00875330357573    0.67522326838733
H          -0.45012944896885    1.90020052267239    0.97398277719108
H          -1.04265879321670    1.70272659432700   -0.99599474535381
N           1.86728765639368   -0.95766195121131    2.32877847517199
H           2.85344680763945   -1.11451980347551    2.49192106072626
H           1.24581553034499   -1.41710728161632    0.80419112041649
H           1.35640795969275   -1.30434167021191    3.13052803378851
H           1.71407057189831    0.04632459455237    2.26960340479036
