    26
        -50.45653071  Gyration_radius:  2.55748245473 Dipole_moment: 6.221
 S          -1.05587763526707   -1.76393230972398   -1.52301878621018
O          -1.62072366684857   -1.09353678853825   -0.35205198865678
O          -1.55216538143734   -3.08422487663972   -1.74856661711694
O          -1.54383163812956   -0.89089164892964   -2.79256836627359
O           0.39840487284090   -1.62440953104136   -1.51520421878360
H           0.24352506480437   -0.03720789859547   -1.53726073446724
H          -2.20956472897801   -1.45966493791689   -3.16601461317443
O           2.15948817586147   -1.48421928700102    0.50899169178951
H           1.71950632194087   -1.70698090698158   -0.33296932510286
O           0.14633843902211    0.94501962766682   -1.59305295526238
H          -0.21575620418135    1.09081807543130   -2.46968707483878
O           0.13875150173707    1.65481780413839    2.31749065351365
H          -0.13001678645163    2.15404777468644    3.08921300005702
O           2.18904379184010    1.20560948994986    0.31938718124407
H           2.43697500466857   -0.54697935378559    0.41116443544517
H           1.59293070393344    1.25473980527422   -0.44237571026754
H           1.66778636877228    1.47412445500844    1.08609298088606
O          -1.32320342483476    2.27154316788735    0.22761275297822
H          -1.23697814497238    3.13677331027365   -0.17674186349270
H          -0.95246961362825    1.63191569370843   -0.41890405036237
H          -0.45675880042613    1.93430345591137    1.57395898487421
N          -0.08626708166297   -1.01701366371514    1.73624520448413
H           0.88109424501593   -1.28912791611051    1.33774354621934
H          -0.76519344803954   -1.04086675666424    0.90708539790754
H          -0.39092955088079   -1.66668439288882    2.45191032399079
H          -0.03410837471270   -0.04797236139123    2.10152013062043
