    26
        -50.45732614  Gyration_radius:  2.60089037443 Dipole_moment: 4.595
 S           0.89590414326594   -2.22373729437364   -1.14256490993151
O           1.28610937727481   -2.74512823938662    0.14607481166200
O           1.34659404308321   -2.95194995639018   -2.28262154431216
O          -0.73112805230016   -2.31657462941028   -1.16945956677637
O           1.10507907887188   -0.76592725812520   -1.22666489958079
H           1.75143830346729    0.09275670078157    0.02083101367639
H          -0.82559300608265   -3.25538265756591   -1.28569921077617
O          -0.74527360092548    3.00714351841701   -1.22356476145056
H           0.03076688164583    3.33907468838070   -1.67736639075626
O          -1.69745818182453    0.08007336707830    1.44342342562414
H          -2.44405901225171   -0.32259626496912    1.88698622364948
O           2.06133903715117    0.62835689390348    0.78987503367553
H           3.01631831474961    0.66096413084380    0.72687237599459
O           0.43836541935314   -1.20760247089764    2.08149570701899
H           0.70687978474227   -1.88732241900901    1.41881357708503
H           1.11996695061274   -0.52423852531181    1.99852678707314
H          -0.88918674102735   -0.46045974993559    1.71420548197490
O          -0.03119763861551    2.37798172689392    1.23105969292115
H          -0.50047747085355    2.94713426748167   -0.26300933995428
H          -0.70048400993717    1.74379212446843    1.52219472790799
H           0.78811427322909    1.86264956614979    1.13551170266183
N          -1.21561114380325    0.38925261039728   -1.18599356921218
H          -0.26451057101323   -0.08310009463254   -1.27179778550876
H          -1.86004770989587   -0.04409446694297   -1.83793674501453
H          -1.53354908078617    0.23384967101467   -0.19992783586479
H          -1.10829935665894    1.42508474210057   -1.34926399244306
