    26
        -50.45653069  Gyration_radius:  2.55746096981 Dipole_moment: 6.221
 S           1.65865242850118    0.16110099984590    1.94138923285407
O           0.28246833396840   -0.33460003050135    1.93714313140986
O           2.08018583760848    0.73377977592442    3.18021356586300
O           2.58479715720536   -1.14593582144768    1.72691736819064
O           1.89043434765143    0.97778962259424    0.75232220460672
H           1.52382922667973   -0.26924076458464   -0.17196756883569
H           2.94630062321471   -1.26419508747094    2.59956704690644
O           1.33721451561295   -1.05406161406626   -0.74345441822641
H           2.07557983607991   -1.64296434658064   -0.57364667541451
O          -2.56421380147408   -0.42705778850122   -1.17123896774193
H          -3.46476402147816   -0.73006739007600   -1.29041659911364
O           0.24998345156914    2.57558137438152   -0.65237371840829
H           1.02358744363638    2.21303190331439   -0.18092159308131
O          -0.97672168978691   -2.40192793957507   -0.48875758441741
H          -0.76910782156878   -3.08856641608314   -1.12514241162321
H          -0.14531913243295   -1.89690204100904   -0.35385346154452
H          -2.02726868306563   -1.22040090527640   -0.91081786898125
O          -0.17074277527047    0.60157148375830   -2.44051248477439
H           0.43593095392892   -0.03145459654780   -2.02897263736702
H          -1.06142833999783    0.30459047806264   -2.21664809159471
H           0.18338540699499    2.04630895499957   -1.47728720550684
N          -1.44692151165432    1.18618915529438    0.74648076783707
H          -0.82430596236377    1.87391622560118    0.19132081430569
H          -2.00541277717308    0.62774765405737    0.07466077864751
H          -0.77490782819219    0.53377045423740    1.26781270508655
H          -2.04123521819475    1.67199664967732    1.40818368092011
