    26
        -50.46707428  Gyration_radius:  2.47571462005 Dipole_moment: 3.994
 S          -1.11471727618282   -1.34856334316559    1.63453334875783
O          -0.06486066228524   -1.85980268129968    0.75182751976904
O          -2.06503712107746   -2.30444676865273    2.09518846133601
O          -0.28723526702949   -0.85049159178880    2.92202065079535
O          -1.69868712549637   -0.13020106755307    1.07366966518420
H          -1.90552904855277    0.06410281606975   -0.52668768112068
H          -0.91918517753447   -0.99482273867071    3.61744116501821
O           2.04456259118802    0.25373503710974   -1.76647342689445
H           2.71703236641189    0.08645264120965   -2.42689275277875
O          -1.96867872312437    0.20794777000133   -1.50310553548500
H          -2.90366881493033    0.26182554838796   -1.70444151500182
O          -0.06008350140442    1.95611507316966    1.23576923042827
H          -0.80064581742062    1.31960706991510    1.30484044750607
O          -0.01588994833801    2.18068873663125   -1.42251031234867
H          -0.08350098298099    2.27029202165858    0.30063615885082
H           0.77575044175490    1.68027074354155   -1.66577369434494
H          -0.76529349527057    1.58833961795820   -1.60064191707669
O           0.13206671624081   -1.49819008577312   -1.92169582098201
H          -0.67340079955876   -0.96406515693563   -2.02486716618348
H           1.33596718364048   -0.44515906983660   -1.90078078421264
H           0.07964763103285   -1.83874055974916   -1.00984990998070
N           1.68094332244453    0.07004688927774    0.91687533734727
H           1.03837155162650   -0.77348696513227    0.91299506356724
H           2.05520926557955    0.18980543013924   -0.04472204123459
H           1.04922627182438    0.92407187514231    1.14946828591499
H           2.41763641067341   -0.04533125204054    1.60317724374678
