    26
        -50.45653080  Gyration_radius:  2.55780588534 Dipole_moment: 6.222
 S           1.78316471583262    1.33209232343416   -1.26276715750014
O           1.93718928671852    0.14699586447459   -0.41928514560335
O           2.91597001436976    2.20209977423460   -1.27774862995321
O           1.64512172169055    0.76873746494024   -2.77130556594227
O           0.49728967698354    1.96812462657560   -0.98623051280723
H          -0.25422204702730    0.62444060790233   -1.40334740648324
H           2.49571083650983    0.99513981009394   -3.13381144960268
O          -0.92195285910363   -1.96011734847302    1.85388215288162
H          -0.93894608183918   -2.73395858329852    2.41772702065971
O          -0.72024138578512   -0.19468252435750   -1.70194135212982
H          -0.54070032226979   -0.23067789603420   -2.64393794783881
O          -0.94787958904708    2.14674752820999    1.27142181936756
H          -0.49864474695765    2.35485537016182    0.43056505025970
O          -0.15111623485957   -2.57128506000348   -0.57882618840083
H          -0.61803869129989   -2.26450333371510    0.95914725321732
H          -0.72319794773119   -3.09492738327121   -1.14279213460008
H          -0.13481387571857   -1.67075367026108   -0.97043159877719
O          -2.47190530188256    0.06736974438567    0.48047921393666
H          -2.03977605716674   -0.04713055952114   -0.37868621040569
H          -2.15101522663938   -0.65042587457022    1.04033346533873
H          -1.70245790747693    1.56981865031126    1.02089544949438
N           0.71803936229167    0.23943735030799    1.86682649300055
H           0.15532398569722   -0.62077788945907    2.00287191357948
H           1.36492967410201    0.38389680657456    2.63346479139572
H           1.25639801277414    0.16148537716499    0.94317008342096
H           0.04577099780310    1.07799883417493    1.75032658349660
