    26
        -50.43966525  Gyration_radius:  2.59473172652 Dipole_moment: 7.687
 S          -2.15926349143448    0.31381179790838    1.22388866559938
O          -1.87596934271512    1.61352341651032    0.68839875568367
O          -3.51350681631826   -0.09279856215047    1.31824020690926
O          -1.34068839129997   -0.73988813042021    0.39214305980280
O          -1.47862145974028    0.16010646900576    2.60600934735934
H          -0.54297204983476    0.50913807989131    2.55529701136426
H          -1.62174244614062   -0.58466695139430   -0.56242947713041
O           1.89430796955614    0.37606152078533   -1.55730925906040
H           2.45641993820957    0.92834816980771   -2.10310530948069
O          -2.02357694062526   -0.36301955918196   -2.03586231164292
H          -2.74418456319773   -0.91365575230029   -2.34748990714508
O           1.03225717299144    0.83893515849515    2.50841501743607
H           1.39125921110525    0.71621435442125    3.38886358845221
O           0.28998986474232   -1.15917814589530   -3.05243480621435
H           0.52193891579217   -2.05300445992597   -2.79564199351208
H          -1.21186460931827   -0.61477042410888   -2.54165476833209
H           0.88600405538808   -0.56310654983619   -2.54198277282106
O           0.64701302569552    2.08632040649689   -0.00937808263490
H          -0.32347073540451    2.00925012741807    0.08416864622030
H           0.98210218385663    1.96678858531582    0.88705809008351
H           1.36038920237801    1.01212412579599   -1.00566194016732
N           1.53904989012504   -1.19873130858745    0.94175819411137
H           1.99212190735644   -2.07069550148321    1.18111943668392
H           0.56106469648920   -1.38459463940094    0.73768831847680
H           1.32487125938542    0.04644604407335    1.95092549892552
H           1.95707156295509   -0.83895826126282    0.08897680100625
