    26
        -50.46245519  Gyration_radius:  2.4353349276 Dipole_moment: 5.477
 S           1.04669144709882   -0.01992631790574    0.11987617574086
O           1.28739499953592   -0.28882568184322   -1.28070934322982
O           1.14114467562978   -1.21416023731072    0.95347136565003
O           1.88756067786067    1.06061805958689    0.64481976684062
O          -0.41384562528998    0.49208736035143    0.30421015848444
O          -0.79865001291785   -1.65841225633053   -2.34829764892294
H          -1.05009372853184   -2.16246608120048   -1.55415319195081
H           0.08575012179808   -1.31063499569133   -2.14043619022223
O          -0.41586636061242   -0.60460715391085    2.94369167846848
H          -1.26857814430101   -0.79599879624565    2.54285005531441
H           0.24466671910448   -0.94890286704012    2.29133397852946
O          -0.85998844657016   -2.76335655654960    0.16384158347284
H          -0.09648501051825   -2.21991944560097    0.45136411768135
H          -0.56896820973432   -3.67563060617998    0.21420203602871
O           0.67963243448672    1.77431456598600   -2.83854668662913
H           1.05651453139000    1.08193672434496   -2.25687563906626
H           0.98305967213334    1.56884961749672   -3.72480567123743
O          -1.63197564115310    0.79446110845627   -1.85791691224954
H          -1.53035642607601   -0.13472045164302   -2.18706893274340
H          -0.94722915562442    0.62866631973845   -0.58712993958432
H          -0.96396051398506    1.31822313998384   -2.34619951905613
N           0.41819384192046    1.84881619610341    2.52974450511302
H           0.88404553759472    2.30999650167932    3.30474640851277
H          -0.00225920592380    0.90661828355085    2.81553327285575
H          -0.30263255830281    2.43921181339274    2.12514364262260
H           1.13623438098641    1.57376175678575    1.71731093957501
