    26
        -50.45993448  Gyration_radius:  2.82309534529 Dipole_moment: 3.708
 S           0.55440061788649   -2.38040673805390   -1.63547198663075
O           0.15354526740307   -2.76617821615625   -0.28267030952723
O          -0.45494884455234   -1.60094462657247   -2.31588782704709
O           1.86849650937957   -1.75361945301259   -1.63531711722870
O           0.70515064484533   -3.73346628036348   -2.45008427916871
H           1.39341301736005   -4.17952183892730   -1.96641890055400
H           1.97339003573590   -0.33452633897083   -0.95825543309474
O           2.00409129714013    0.49364502189924   -0.40050772446346
H           2.92163316164519    0.60102125003639   -0.14603830922138
O          -1.79993865683039    0.32521833165768   -1.24967256803036
H          -1.29323797393143   -0.38158710151519   -1.73219789788681
O          -0.66444295079568    2.82287024424401    1.85742653327002
H          -0.18222314031520    3.60917709047734    2.11457563663610
O          -0.72401902420400    0.56434260096484    3.28675190656015
H          -0.67967487139859    1.44842241381342    2.85724863119898
H          -1.56123887078999    0.53270058077655    3.75111214278047
H          -2.70106261593376    0.26634655502977   -1.56895345342825
O          -0.02599755907730    2.38181242853144   -0.69714132747150
H          -0.46442733949109    2.68642344959506    0.89955318550947
H           0.79081353529676    1.86258502401316   -0.74545293316534
H          -0.71616809313577    1.81419937169054   -1.07353456826664
N          -0.22775532205379   -0.45868021120445    0.84289084541824
H          -0.98599866175066   -0.06414422376556    0.25973163668682
H           0.65643998856638    0.01504538978207    0.57731181522910
H          -0.42306659094614   -0.29663123287340    1.85258075098708
H          -0.11717354025448   -1.47410349099811    0.55842157105418
