    26
        -50.45495425  Gyration_radius:  2.70762657933 Dipole_moment: 5.632
 S           1.87424252449275    1.86267890235845    0.99434267059340
O           1.34194892280716    1.14815991393819    2.16118295975075
O           2.61668113041480    1.01469814340723    0.09618199319328
O           0.81760338520628    2.62289932550978    0.34080962668900
O           2.90238485707346    2.92022385330020    1.58395916518115
H           2.40387260438252    3.33624408635622    2.28103593415377
H          -0.68504920401645    2.20970370864027    0.00672016046957
O           1.03794150772642   -0.57375458064500   -1.21711336671594
H           1.74211128970336    0.01935374969479   -0.85981750040138
O          -1.97661651852325   -2.25122989821703   -0.37556655035166
H          -2.68410108517208   -2.79440231877002   -0.72366238688896
O          -1.62488262310041    1.89742789292936   -0.10035310385629
H          -2.16709899727132    2.68546102215489   -0.05430524603887
O           0.62533968962978   -3.13307430911356   -0.34233741715317
H          -0.32594983589388   -2.90990758158577   -0.34476648308067
H           0.70361559838199   -4.01978088545178   -0.69437382670393
H           1.32027892559836   -1.49005914343008   -1.06970665593804
O          -1.59261246523626   -0.15500426882071   -1.96183158555442
H          -1.89778465271069   -1.48103232033426   -0.99597274982649
H          -1.72685804665056    0.66361762095901   -1.45597372139193
H          -0.63289444091153   -0.22611739422329   -2.07249401720276
N          -0.43464148881907   -0.28907251824595    0.98317584548425
H          -1.19307849565569    0.37568222716053    0.77335181368751
H           0.27240172932173    0.20707322624646    1.61584018329094
H          -0.79923560871762   -1.16083692380099    1.35783950436137
H           0.08238129792576   -0.47895154000709    0.07383474425208
