    26
        -50.46456598  Gyration_radius:  2.39508042721 Dipole_moment: 4.080
 S          -0.33213090239813   -0.00348594008622    1.74975837052628
O          -1.36766892747846   -0.96485885858729    2.00963904982993
O           0.41693887115863    0.49914092587721    2.88165797486354
O           0.78467529479263   -0.71367840211040    0.87172176132629
O          -0.81605141421272    1.11709490436127    0.90979939499636
H          -1.56043973786203    0.91523664612069   -0.48272253256744
H           0.39663156871086   -1.35895852380727    0.22622747866244
O          -0.14880213247899   -2.42616757844385   -0.88490750524540
H          -0.00013766744765   -3.32999070354009   -0.60303638130455
O           2.69515850309627    0.61511164849519   -0.68516576342534
H           2.74303360522779   -0.22338544428355   -0.21569343405516
O          -1.95298126474908    0.75387128811199   -1.37910996729279
H          -2.51563418916176    1.50529978088779   -1.56964997778458
O          -2.54756021426125   -1.71592369681509   -0.26677700312991
H          -2.29358285275817   -1.47744364619339    0.64976247191931
H          -2.60014133622977   -0.87864912244242   -0.75554364648398
H          -1.12952147786930   -2.24764030376973   -0.74253101196996
O           0.59212470197672   -0.02845141610250   -2.20593977727636
H          -0.28591009642520    0.35925415483329   -2.05946325807075
H           1.96603926033951    0.48474472829498   -1.33982535793393
H           0.47818538636055   -0.96742848527473   -2.01124711263374
N           1.53632355372517    2.05954428273997    1.18050277085684
H           1.86841296775339    2.99882120183636    1.37106767937229
H           1.42415283800131    1.46552957379920    2.05032533142552
H           0.53187053245770    2.01367428023692    0.86129093780916
H           2.11701513973856    1.54873868586127    0.43985949758873
