    26
        -50.46456600  Gyration_radius:  2.39508957792 Dipole_moment: 4.079
 S           1.66172880725560   -0.15569911467887   -0.62188624376918
O           2.55865105914668    0.42000258620187    0.34154611596025
O           2.23516925366472   -0.97829712090269   -1.66563746435281
O           0.70641258991836   -1.16767889127014    0.14354565953497
O           0.74970273904956    0.85738841271226   -1.20274721982382
H          -0.14745314475372    1.83782761399502   -0.32647416958135
H           0.47631255168801   -0.84722365037933    1.05342424798470
O          -1.76042068080545   -2.08768339765958   -0.80946202711929
H          -1.10547075431018   -2.51757770875858   -0.25090210024296
O          -0.74653230179104    2.38006922858912    0.24860899473069
H          -0.94444844252438    3.17927208439369   -0.24088416137706
O           0.02216933951458   -0.39388420128332    2.55666212113858
H           0.49597073221137   -0.88700048256743    3.22807332731240
O           1.20818897779609    1.85640100482747    2.14466066073495
H           1.85092548232197    1.45967724992221    1.51944224079325
H           0.53816064001787    2.29514448114303    1.59581013261828
H           0.44416642821157    0.52007416078153    2.53221046084083
O          -2.14673112921834    0.02808085706369    0.77919347682696
H          -1.64448419657643   -0.21352055497354    1.56784868442916
H          -1.82237637264110    0.91277275046935    0.54508390218838
H          -2.03517138955431   -1.29160495363291   -0.29180576719217
N          -0.14664011876410   -1.06522853226758   -2.61517894048035
H          -0.84974190828511   -1.56153904026407   -1.97796738471380
H          -0.05325444008043   -0.07922245177284   -2.25174309276042
H           0.84313934825535   -1.37696257834170   -2.40279594260122
H          -0.38797307972329   -1.12358775134648   -3.59862551107340
