    26
        -50.46456600  Gyration_radius:  2.39508286321 Dipole_moment: 4.079
 S          -0.50401698934539   -1.70586481973674   -0.08447363011016
O           0.67310930605082   -2.52678293322183   -0.01705659999509
O          -1.78487972575767   -2.35118446353262    0.11032716156171
O          -0.44389365009985   -0.66619478857869    1.11475506183296
O          -0.52574047181819   -0.86964956258177   -1.30748010425673
H           0.67493323158842    0.07976830277983   -1.74483982069272
H           0.48242784366262   -0.36420014952106    1.29967143927277
O           1.96827457616763    0.21014185687223    1.66574954903833
H           2.31085108309126   -0.19253767569425    2.46506896989489
O           1.40929127425789    0.71519754711065   -1.94616259744844
H           1.39887437431876    0.85241638279648   -2.89407894278017
O          -1.89270119121148    1.72610085624994    1.24549770424294
H          -1.60127386205709    1.13170846435250    1.94373649285275
O           2.87113010139780   -1.05421639786630   -0.39000513100071
H           2.59142047685348   -0.44418772249416   -1.09166352208462
H           2.45271168492702   -0.23158311046448    0.90137506480701
H           2.17321215779474   -1.74078349344008   -0.33594559203196
O           0.54005006753966    2.20534953543975    0.24452275736391
H           1.11584857143673    1.77917712036404    0.89217584749797
H           0.82470291558221    1.84340177734822   -0.61022848243549
H          -1.05370305604331    2.02836528660009    0.81904982124734
N          -2.78945202360940   -0.06079978181007   -0.46127799529146
H          -3.67118841618382    0.09446191201340   -0.93799427967435
H          -2.55248020389697    0.70577362365260    0.24790554008104
H          -2.70872368730788   -1.02136800785655   -0.02216120742683
H          -1.95878436733724   -0.14250975877799   -1.10646750446200
