    26
        -50.45495409  Gyration_radius:  2.70776951164 Dipole_moment: 5.631
 S          -1.51885969677796   -1.70678174014594   -1.65882148865393
O          -1.72051010399854   -2.18021366696141   -0.28384795144029
O          -2.04173762821157   -0.38364549005755   -1.88887793597324
O          -0.12336729388275   -1.85899836761774   -2.04741177479443
O          -2.35958907218758   -2.69885145745360   -2.57097129135801
H          -2.08909406756089   -3.55700952080723   -2.25808463621649
H           1.20804629265877   -1.54249932306578   -1.23052704862710
O           1.98478450967122   -1.38522912805210   -0.62691834731912
H           2.65761405727274   -2.00873935387189   -0.90197990459406
O          -0.57672279729129    1.42066909675629   -0.73202145972621
H          -1.17069237593031    0.86168959447910   -1.28883727527853
O           1.25068719753912    1.48543040574447    2.31154438226940
H           1.85761387360522    2.00354590052199    2.84059835817346
O           2.13444741276698    1.34732840610680   -0.19016950120354
H           2.27615555530253    0.41748054787129   -0.43377574995237
H           1.32131029279620    1.60502414023555   -0.64926925032682
H           1.64492016461819    1.45433594470507    1.40167198604807
O          -1.27668463072779    2.39147609225765    1.72787248176952
H          -0.38435882276218    2.11726461948916    2.01660485592359
H          -1.44513982750690    3.24765065316659    2.12146656538838
H          -1.13600762322273    1.94821587017172   -0.14036036089381
N          -0.09538348629007   -0.60196281295385    0.93183620866031
H           0.83519366623880   -0.98245093735048    0.70713652216576
H          -0.23462659467061    0.26859697625441    0.33779971252854
H          -0.82903532767416   -1.30237851303622    0.58897724062808
H          -0.16896365376402   -0.35994792638161    1.91636564280495
