    26
        -50.45495411  Gyration_radius:  2.70776760924 Dipole_moment: 5.633
 S          -2.30491835447419   -1.59565397603839    0.33675694316689
O          -1.82983536684286   -1.26631946842703    1.68626611784634
O          -2.74229985055368   -0.44374855379978   -0.41078733907417
O          -1.31818658062320   -2.40633264850295   -0.36374678983519
O          -3.58200038921059   -2.51467314388734    0.55510150803558
H          -3.27525945966003   -3.16002747386663    1.18512631829369
H           0.26681667930798   -2.25606130484336   -0.43677440306249
O           1.25299849748255   -2.13166305628591   -0.37084279475317
H           1.63110872400562   -3.00762590430368   -0.45310473799459
O          -0.72704572392245    1.01615157423420   -1.15086273270788
H          -1.57165032526625    0.52267114348454   -1.01522933790033
O           2.38220334836676    1.81735649626052    0.36639640717039
H           3.22033933272992    2.26001810287330    0.23106564204857
O           1.86606610024464    0.22378709004608   -1.69566941751420
H           1.77491089166639   -0.69183087484911   -1.38356722759782
H           0.96168007883289    0.51443587394500   -1.88544731158167
H           2.25882235905595    1.22668446444663   -0.42113625470465
O           0.00700374201249    3.19820982959919    0.32677957615078
H          -0.85741431634426    1.92066094524165   -0.82525095282838
H           0.89168102914751    2.78606602419198    0.37412843732057
H           0.14400546861706    4.13376346370417    0.17737304946462
N           0.33012346447681   -0.01900916986059    1.06302182560038
H           0.78731550337823    0.66039569746310    1.66525247633452
H           0.97840923069841   -0.76920239642636    0.78351165792888
H          -0.53982225184425   -0.47674002517357    1.48730794845582
H          -0.00505183127843    0.45868728076433    0.17433138173685
