    26
        -50.45123056  Gyration_radius:  2.47051603694 Dipole_moment: 4.657
 S          -1.66162423673904   -1.13893481057025    1.29921818340238
O          -0.73156622717136   -0.05622445589469    1.53129448368841
O          -2.75059184449677   -1.23369042412077    2.19860582557108
O          -2.15392435388909   -1.03318152490992   -0.17550743526072
O          -0.88453621898776   -2.46685758372445    1.26196455168379
H          -0.26186098667058   -2.38554661028710    0.47720733604791
H          -2.10820202311550   -0.09536441848549   -0.52050232662165
O           0.60773803003111   -2.22136852433224   -0.81435332500436
H           0.29953138850829   -2.87886755727913   -1.44123938099731
O          -1.99127176155523    1.36408996510495   -1.13102782880551
H          -2.84013083143509    1.80870544210304   -1.14557520082978
O           1.98959936711317    1.64946958116108   -0.53803885059550
H           2.85846654805441    1.99547810215218   -0.74276452723892
O           0.35177185312630    0.07166333107117   -2.06088248774443
H           0.49959233274735   -1.34102645272992   -1.27450744945228
H          -0.52239925207694    0.47230658423253   -1.98075285367504
H           0.96952060647865    0.69036527490944   -1.62752857614749
O          -0.40014528415120    2.44305366609295    0.58294632279335
H          -0.48614825635480    1.66856315602715    1.16583238892344
H           0.48650051519331    2.36458964331369    0.18952742539648
H          -1.40274120509559    1.87989020370962   -0.49210962609358
N           2.08467744485375   -0.39628777924407    1.12700292326254
H           2.67276459188098   -0.48561367637300    1.94559967341881
H           2.14074758291100   -1.26231663653428    0.60342348300358
H           1.11903526144912   -0.31050974105562    1.44447720081951
H           2.11519696938729    0.89761524566459    0.11769007045218
