    26
        -50.46456598  Gyration_radius:  2.39508738456 Dipole_moment: 4.078
 S           0.18813515538541   -1.76399275228298   -0.15770538730984
O          -0.27449608543093   -2.37631276136086    1.05682963371832
O           0.39077796328372   -2.62053283253593   -1.30671789585084
O          -0.93589835468326   -0.75920698182263   -0.65737335575364
O           1.37952527265164   -0.91316010117323    0.07089630469693
H           1.44189879346407    0.23539160888239    1.17137334454185
H          -1.39612211724179   -0.30986165427275    0.09749244877260
O          -0.52725865889365    1.35141899548117   -2.45121205736227
H          -1.29978860776460    0.79769596505629   -2.30170595202442
O          -2.19700216149774    0.49756928956742    1.27140531143429
H          -3.07568907484979    0.13893661120095    1.40460598470970
O           1.41890202027943    0.99018341728536    1.81435128007384
H           2.32478418682002    1.14704632830548    2.08316048435587
O          -0.33534524435542    2.25830598486691    0.05697697859201
H           0.37328383552166    1.97071187508660    0.65512918541741
H          -0.37992717579447    1.80103086772582   -1.58330220993435
H          -1.14503914308847    1.91937166335188    0.45962404207712
O          -0.57419779563813   -0.54554842470571    2.97970772778182
H           0.19829339584070    0.02572894855950    2.83969821894680
H          -1.63975276356434    0.16282676091586    2.04048734286998
H          -0.42472245216131   -1.34107065484261    2.42638802221178
N           1.32054363081595   -0.51841491567177   -2.44615854855559
H           2.05696304863129   -0.50206238851186   -3.14347569773820
H           0.84969387199750   -1.46231958192867   -2.34944455564800
H           1.66592415461707   -0.44298226713317   -1.45215334627567
H           0.59651429565626    0.25924700995682   -2.57887732375284
