    26
        -50.47298380  Gyration_radius:  2.48797168689 Dipole_moment: 1.921
 S          -0.90153936005382    0.95661202972723   -1.69683205301035
O          -0.17187911204191    0.23405422987011   -2.71899809401789
O          -1.96143727703761    0.19473381184306   -1.07139684944005
O          -0.00461317979194    1.55769129102701   -0.71198801989263
O          -1.61277867252783    2.16348254848649   -2.43949415316415
H          -0.94593422001962    2.43737925117820   -3.06019247791152
H           0.67973479678801   -1.00128974594339   -2.14784372454525
O          -1.73343055845642    1.52487022832190    1.23647441174168
H          -0.99620969263821    1.76943998257351    0.63622418289052
O           1.17099231227537   -1.73932077333824   -1.70274543651684
H           1.44487255082604   -2.33650915271368   -2.40077587786982
O           2.04242434122814    0.00451749013811    2.39694817278172
H           2.28206586745628    0.86026257984316    2.75577364760883
O           2.29427789467998    0.29074661159393   -0.18385189665559
H           2.14451085057418   -0.53108427282204   -0.67461205866225
H           1.52574837202467    0.85449604390753   -0.40192413556461
H           2.23502430547871    0.06335782115410    1.41914340371101
O          -0.91695427505351   -1.98815578072043    0.02791734132161
H          -0.10985307926617   -2.09380187853833   -0.50774709532801
H          -2.35006060118007    1.10473107077815    0.61876209103017
H          -1.43174634711715   -1.29233760642152   -0.43215672895310
N          -0.53816422359986   -0.61456514836085    2.23762354757601
H          -0.64404717520939   -1.27163419507888    1.40269469833484
H          -0.93654115634203   -1.03062828926189    3.07177246649966
H           0.48539354906452   -0.39538112617774    2.37725137100465
H          -1.04985593016162    0.27833297894438    1.96997327699446
