    26
        -50.45730954  Gyration_radius:  2.44835222944 Dipole_moment: 7.977
 S          -1.70777023522761   -0.56707634773584   -1.61449475691908
O          -0.35183276245841   -0.43368648699422   -2.12958174931911
O          -2.60528794828544   -1.34283125577370   -2.39427482036219
O          -1.65417639173322   -1.00806125416614   -0.18625894139278
O          -2.24942826049556    0.92315944031888   -1.51504825028627
H          -1.43223955274603    1.42811716134391   -1.36427558765238
H           0.97439001412976   -1.08061163003193   -1.63199025835361
O           1.83958601350386   -1.42259888986195   -1.26642326931661
H           2.31998889743229   -1.77236662514338   -2.01742408925845
O           0.97925573862787   -0.18814520410407    2.41904528031982
H           1.27634173215865   -0.47457117518645    3.28283266890573
O          -0.07693502516798    2.31031130610003   -0.66906574687621
H           0.17757986238348    2.99143490376438   -1.29234049550248
O           2.02562299525191    0.94644843987469    0.06244579863332
H           2.09130991403636    0.13202063110458   -0.47220183763246
H           0.75445298728371    1.78455256902102   -0.48044150404743
H           1.84097216200524    0.64539126329507    0.96418269580205
O           0.44814996435128   -2.22067548383265    0.93276392097614
H           1.08392974779084   -2.15991739308930    0.19886611292129
H           0.80761022040998   -1.03177652168857    1.88470896441906
H          -0.40616307072554   -1.95483284967508    0.53349956991518
N          -1.23720011381897    0.92690121058574    1.37887317476939
H          -0.94757351457501    1.70750897151097    0.77498158713722
H          -1.48316096556733    0.07377126279532    0.69825419557915
H          -0.42788119407512    0.61257389480390    1.95734140015349
H          -2.03954123456396    1.17496005255903    1.94602590748983
