    26
        -50.44974514  Gyration_radius:  2.55347614759 Dipole_moment: 5.640
 S          -2.03567634473971   -1.59694813814100   -0.66371650338158
O          -1.62017526952467   -0.79369617109775    0.46654502360346
O          -3.20735384252018   -2.37215679562443   -0.51553839778826
O          -2.19044659359052   -0.66410909281844   -1.89330075163283
O          -0.85523678319827   -2.52724567570678   -1.04882820492407
H           0.02970227441583   -2.10873395348816   -0.84280812467300
H          -1.56308756258800    0.11110027099967   -1.85478229796874
O           1.48178794170557   -1.61066093031525   -0.41116091055015
H           2.07294189177295   -2.36524291591790   -0.40838455424855
O          -0.71689967759195    1.47462642042579   -1.79490061696017
H          -1.15657886730719    2.11836903435529   -2.35299189367008
O           1.39724624193209    1.89403282833723    1.45254307862909
H           1.82629183756869    2.73634925817136    1.60710960116398
O           1.91930607512087    1.05207703385139   -1.00900298042062
H           1.91156069283515    0.08611322587944   -0.91471856426390
H           1.09373563036244    1.26409017188761   -1.47082335410722
H           1.67898891301680    1.60053650376799    0.54742476692912
O          -1.22513154591106    1.86319165629677    0.68927102793825
H          -0.93056998416087    1.72704799502666   -0.83631903136187
H          -1.50783155484339    0.93766040930001    0.80017144578442
H          -0.34172030783263    1.92267137731031    1.10528372793952
N           0.80274311185790   -0.95272331329071    1.99379670896244
H           1.28618431416217   -1.37588283736158    0.57030190838239
H           0.95267571224606   -1.48579209002762    2.83958348725438
H           1.09126618286472    0.00678980003583    2.15868964336132
H          -0.19372248614749   -0.94146409198858    1.78655576600408
