    26
        -50.45156589  Gyration_radius:  2.44928232912 Dipole_moment: 6.104
 S           1.55133182793347    0.06785523907719   -1.05608670147317
O           1.42560807924620    0.85515253534166    0.14563958397054
O           2.28299368426710   -1.14420257145740   -0.91481136073177
O           0.11826312396551   -0.22550743828093   -1.60538482269536
O           2.11006292947102    0.91811676588816   -2.19230796991538
H           1.38649719931531    1.60067480555452   -2.40670282905041
H          -0.43384213088480   -0.83985048410101   -1.03553266129464
O          -1.55158741969713   -1.63790752247750   -0.24050144903856
H          -2.31308184680742   -1.72998368345078   -0.81688128540099
O           0.09359462172446    2.41096212119996   -2.63723919735306
H          -0.48942956767368    1.80145434714857   -3.09655001768291
O           0.32318558810092   -0.01186117717376    2.49859339241403
H           0.88173266155048    0.49043822651900    1.88739757070817
O          -1.99387653887628    0.34210004287645    1.43576591423979
H          -1.78263588815764   -0.94069525093924    0.42656483098061
H          -2.65474596712227    0.35386980888819    2.12944024093937
H          -1.10160959150549    0.25228004861596    1.90777919618126
O          -0.76011625526838    2.36360447124358   -0.12939970631127
H           0.09668343974276    1.96932578237006    0.11385617014848
H          -0.29956498202658    2.53885707663901   -1.73908119574394
H          -1.41827862273506    1.80376356089256    0.30602249130149
N           0.93603336498536   -2.37606121324434    1.37426823130041
H           1.56245829560139   -2.02341141272244    0.65340417381683
H           0.10865161737588   -2.72159462871853    0.90193511128573
H           1.39123502664017   -3.16403616156685    1.81770596748853
H           0.53043734064786   -0.95334328788440    2.27210631232069
