    26
        -50.44548843  Gyration_radius:  2.51863881025 Dipole_moment: 6.897
 S          -0.97815045750787   -1.87538590724895   -0.32005212404901
O           0.10139102968841   -2.23830641792438    0.56454034978885
O          -2.27859910642830   -1.87680340123685    0.25072248342138
O          -0.66750261381941   -0.45313929553203   -0.90093935632915
O          -0.92179452542819   -2.73254374707118   -1.58729426025111
H          -0.07757761209342   -2.44636884692810   -2.08684794236617
H          -1.24643608077461    0.24712400199455   -0.47812203145922
O           1.13199184995359   -1.73023573303010   -2.70434150424782
H           0.78064930473476   -0.89662735318420   -3.02718477078429
O          -2.08490469098776    1.46747432567248    0.08444881496554
H          -2.79671119356698    1.64335101496179   -0.53367586617751
O           1.54320976958627    1.34441730816955    0.87594380624558
H           2.27710811761304    1.47306763570655    1.47925658819008
O           2.26733119010841   -1.03043689414239   -0.44198731841495
H           2.06276886086310   -0.11798400145433   -0.17867635633969
H           1.62925942701236   -1.57999468187298    0.04817939003736
H           1.69737234632574   -1.49379315580958   -1.91907717385971
O          -0.10547200635548    3.20788447392934   -0.16200272778946
H          -0.05299271479526    3.91933635126045    0.47875540122782
H           0.58993222446995    2.56166023415459    0.08348883958050
H          -1.41207950835846    2.18546869642639   -0.03072283658008
N          -0.36668741080615    0.06292434357682    2.19878779924965
H           0.82639814115997    0.86769495343472    1.39447606406090
H          -0.23848459184146   -0.87362022437244    1.82122185831081
H          -0.40390779887662   -0.01671240211300    3.20782776445604
H          -1.27611194987262    0.38154870262674    1.88327512912461
