    26
        -50.44928171  Gyration_radius:  2.47049901759 Dipole_moment: 7.782
 S          -2.07328849635358   -0.59476548344617    0.61804279602797
O          -1.54480827449152    0.74636152994401    0.75331084139054
O          -3.46998999666176   -0.71787796873940    0.44105896932997
O          -1.29053553662339   -1.28952701016494   -0.54158066631213
O          -1.61241909976824   -1.43415696182542    1.82148411295426
H          -0.63104391279313   -1.29250290681873    1.99960322871168
H          -1.51870520771349   -0.82468605904143   -1.41511856831475
O           0.86664323261573   -1.01938191171805    2.40617172030019
H           0.90672428136904   -1.10112589054898    3.36107844936011
O          -1.64805692789694    0.00931355184716   -2.69345827465627
H          -1.05228000427627   -0.24088181788721   -3.40279911519465
O           1.90570169119082    1.27615622520876   -0.76386835755856
H           2.79115959215049    1.49968730948797   -1.05181433782002
O          -0.66710075750866    2.07006162521254   -1.45035688218186
H          -1.33077368538359    0.89215915725590   -2.34810383057977
H          -1.09823851178740    1.81861729744773   -0.61557311400720
H           0.28107157193007    1.91639718347848   -1.30316566555143
O           0.83422041846292    1.48065333360082    1.76445000927949
H           0.94281775274731   -0.03449838636117    2.20487217012968
H           1.31452492450836    1.57717299911654    0.92263210857146
H          -0.10475465008816    1.43001077213278    1.50928702258993
N           1.66683180205135   -1.35521752627119   -0.45748278174237
H           2.19036932066268   -2.06097411616445   -0.96016339156221
H           0.67787540776377   -1.51868567617275   -0.62724549133976
H           1.80941166602514   -1.51047116585137    0.53526167072833
H           1.85464337985654    0.27816189628032   -0.70652263253420
