    26
        -50.45156594  Gyration_radius:  2.44925450418 Dipole_moment: 6.103
 S          -1.06010297112221   -1.00856929080924   -1.17731492143735
O           0.29153771010453   -0.63548279347107   -1.51427511663950
O          -1.21777929708525   -2.32907249089369   -0.67150296570148
O          -1.61867654761166    0.03308985692663   -0.15537955329457
O          -1.99071816207491   -0.75733030137903   -2.35914568999644
H          -2.02374883592124    0.25333038267604   -2.47301831187675
H          -1.18554530302780    0.00864177495966    0.74945005016252
O          -0.55734369271277    0.28341811641600    2.18069300428187
H          -1.11649318777012    0.92114342005485    2.62932441495370
O          -2.02657824886331    1.79033707321400   -2.33682974634921
H          -2.59361762828133    1.96012668792847   -1.58047705955220
O           2.42086221904542   -0.66600497301015    0.20870936102417
H           1.92190452708934   -0.70702389141972   -0.62025341687937
O           0.43046715258864    2.02713430376379   -1.37399194013304
H          -1.11130636738172    2.03023791574262   -2.04981572074444
H           0.74771538633179    2.14086049204056   -0.46700196115551
H           0.55251708830751    1.07873883078571   -1.55937912250358
O           1.53461767710666    1.53967784062021    1.19514455495840
H           0.25629078205197    0.77246126790294    1.89207430708430
H           2.23208462700757    1.95354579776920    1.70535701949649
H           1.94771386818457    0.70784315420291    0.78936552467860
N           0.77464096347052   -2.37499245030482    1.47316844862099
H           1.98214906726146   -1.35345316955468    0.77041281097184
H           0.13347278072715   -2.54044239600696    0.69983613547104
H           1.01464892204546   -3.27462411690152    1.87046323626663
H           0.26128746059750   -1.85359103127246    2.17438668833266
