    26
        -50.45156593  Gyration_radius:  2.44922944145 Dipole_moment: 6.104
 S          -1.08042367875196   -0.47098391734567    1.46197521282384
O          -1.01389843178143   -1.29461867544979    0.28015789279971
O          -0.26311221312392   -0.89686376298931    2.54592859647995
O          -0.72583549319225    0.99688097502547    1.06064490086884
O          -2.52927834954280   -0.29086418154035    1.90285520880312
H          -2.97020675204790    0.26800832913191    1.17579326887963
H           0.22897480202339    1.13877304659206    0.78600298391029
O          -3.35335026267095    1.23636486576251    0.03693668178895
H          -2.94935782148778    2.07042478239359    0.28908435646185
O           1.26454000679376   -1.86368220016425   -1.12902342182248
H           0.37419841997160   -1.96345689419101   -0.76123744566486
O           1.61608330505286    1.58349921907153    0.15720054077302
H           1.60071156362282    2.53767222594040    0.05769672135948
O          -1.70950218816111    0.24325913304687   -1.78880583112633
H          -2.85343163524085    0.92059433461856   -0.75545098072311
H          -0.83942608712375    0.54179131255975   -2.08881528636976
H          -1.51914001077565   -0.48141779087391   -1.16652733133148
O           1.09248876303384    0.48159963910506   -2.17457660481426
H           1.15598832868872   -0.47055666376736   -1.83299983944408
H           1.49496524123506    1.20106888559959   -0.75033534793415
H           1.65417769164434    0.51726967426943   -2.95001490490017
N           2.34140063378835   -1.18220305138705    1.23874853649275
H           1.82409360168766   -1.70951425122410   -0.32677403263927
H           2.60139019264294   -0.20369046568239    1.19395020919495
H           1.48947651817474   -1.23654326514509    1.79343166003352
H           3.06847386554496   -1.67281133336027    1.74415424609136
