    26
        -50.43998952  Gyration_radius:  2.62203268452 Dipole_moment: 4.643
 S          -2.44137613699407   -0.17578406602487   -1.07806879655678
O          -3.04277962005419   -0.98473006486051   -0.06146722286207
O          -2.15543936958333    1.18506623071859   -0.78491683836876
O          -1.19885581253526   -0.90481915291947   -1.58795093532812
O          -3.41812922356748   -0.21099391996519   -2.32443478002148
H          -3.89952015452973   -1.03311772103196   -2.26271542722422
H          -0.57476341686365   -0.25744246617417   -2.14288575318348
O           1.96866794528769   -1.33944500766606    0.46117925018875
H           2.72226806463737   -1.93017906392885    0.46506713058958
O           0.35381419545416    0.57163548022941   -2.84077494425375
H           0.90850006926482    0.02938972567282   -3.40656341305147
O          -0.10108953081957    1.77921247232003    0.94754157049265
H          -0.83267020849638    1.98259039625822    0.34959892257980
O           1.79424249865018    1.07871374329000   -0.79819464367234
H           1.93862153456127    0.18082125305204   -0.44411841346473
H           0.94948581982518    0.87646228446695   -2.06862681952616
H           1.16943862118545    1.49367194884251   -0.15819792127490
O          -0.75292681547802   -0.83548760072801    1.40544396402260
H          -0.10916049335022   -1.28087755490169    0.84055055934430
H          -0.31772744309896    0.88299884812696    1.27209416437564
H          -1.62664676357356   -0.98783844592713    1.01642703565369
N           1.78559987435614    0.03231178387212    2.76778539679630
H           1.67952187079950    0.99431074706432    2.46496880556028
H           1.96255276552524   -0.87838233961198    1.34282664136063
H           2.37574586283235    0.02467844166497    3.59011786542606
H           0.86262584660697   -0.29276597184928    3.03531460239411
