    26
        -50.45610073  Gyration_radius:  2.43388082367 Dipole_moment: 1.777
 S           0.27424425599946    0.53275083846116   -0.87526683815110
O           0.12758080223237    0.68567598790165   -2.38892362121151
O          -0.70557310124656    1.35388288911439   -0.17898775508057
O           0.05895498756646   -0.89625228813355   -0.54831378472688
O           1.63592951165984    0.92449322924132   -0.51735039194980
O           2.34449665496220   -1.43857589605078    0.52067603614318
H           2.76309792233194   -0.68134551340827    0.08650664007682
H           1.46436820128747   -1.46715315223637    0.06211444698606
O           1.91799311083138    1.93986395269481    1.82650928182130
H           1.74630088886341    1.68660826185720    0.87629042910963
H           2.75883937828785    2.40041826751111    1.83690842389008
O          -0.86270709079201   -0.40053970062165    1.81269019164517
H          -0.64544857827002   -0.81856350368913    0.94129857320523
H          -1.00359439092333    0.52482729594258    1.54803944722114
O          -3.08167267418853    0.20622344388474   -0.48526166602468
H          -2.27536164303867    0.75841066983272   -0.40014360447155
H          -3.14931002754021   -0.28635372284596    0.33579058197251
O           1.50624505563882   -0.41119447247172    2.65489386857238
H           0.47470734964227   -0.45650669655383    2.45834773738991
H           1.93601155208738   -0.93698152261913    1.84259095535602
H           1.73972964329086    0.57550647830207    2.47244283595180
N          -1.87865159713634   -0.81488160038780   -2.82286877455111
H          -2.36512984975305   -0.79612084889737   -3.70872846734035
H          -0.69917120554462    0.09294666959334   -2.64649599164530
H          -2.51432956143933   -0.52062823498083   -2.07696572765213
H          -1.56754959448592   -1.75651084149051   -2.62579280630102
