    26
        -50.46015600  Gyration_radius:  2.56917985596 Dipole_moment: 4.623
 S          -2.23918449818539   -0.53741756034552   -0.82478785705405
O          -2.77897292692645    0.66792743595926   -1.38664936623667
O          -1.20964421175213   -1.20148835894301   -1.59210209757607
O          -1.76871516811351   -0.34092689411930    0.56315000633186
O          -3.45425280057670   -1.56656603548836   -0.71101067139600
H          -4.22552303112121   -1.00980301274397   -0.76732798968972
H          -1.19219685451271    1.21652419676382    0.35318335560783
O           1.65705863279291   -0.46580786363098    2.88926406162194
H           2.54494363556612   -0.57285816782815    3.23279419656287
O          -0.79045455786217    2.06295131579308    0.06346409145358
H          -1.52797640027622    2.57819430844261   -0.27217360521007
O           2.14748737941960   -0.25730812486512   -0.97781982719082
H           2.73767662465849   -0.66498257200961   -1.61224972300442
O           1.73641767837229    1.55051203188591    1.17667916663059
H           1.65558308878944    0.39100644163029    2.39232121686080
H           2.06958798134024    1.07720428412679    0.40167293972558
H           0.87452913079224    1.90460028650718    0.91360139460521
O           0.24278844969721    0.92928515274892   -2.22776021072895
H           1.45890260425247    0.23973745876644   -1.52467625488303
H          -0.37136246501294    0.16937169091024   -2.22974656606070
H          -0.11446582404379    1.53659447016158   -1.55495905255935
N           0.51775646208578   -1.56531751254457    0.74165442593588
H           1.12527022856707   -1.16003105155762   -0.01058686884893
H           0.40409065743609   -2.56440436823707    0.61162502630911
H           0.94221209833769   -1.31969824127440    1.67017576842481
H          -0.44155591366032   -1.09729932001848    0.68226442036884
