    26
        -50.43578463  Gyration_radius:  2.81681178782 Dipole_moment: 6.321
 S          -3.23638648171393   -0.44386334316174    0.74618967742684
O          -3.61242504265923    0.88008337442956    0.06970307588877
O          -4.40372237448224   -1.13945568389082    1.14560660482333
O          -2.55320293428721   -1.26187052899616   -0.43210794980265
O          -2.18709727747818   -0.22795702896078    1.69831377896400
H          -1.25504013663922    1.35176159624422    1.04924376021738
H          -3.24484662451275   -1.60442623770302   -0.99303554853789
O           0.32060159818412   -0.99810202500709    0.90194171583381
H          -0.57076581378160   -0.95670333684111    1.27818484997721
O          -1.33332428980300    1.91114689477943    0.26152135382154
H          -2.75194623844992    1.44702059090195    0.05667743606361
O           2.67639656431574    0.88331521574262   -1.17828103453870
H           3.48696630742246    1.17632446892305   -1.59475445826673
O          -0.05515767934504    0.37683562458660   -1.42413400819874
H          -0.85641426561523    1.42196362811278   -0.47036241754986
H           0.85589989289714    0.67933381138718   -1.55866086946737
H           0.01131872984676   -0.34352164254856   -0.76564468446061
O           1.46860766085502    1.46652986668985    1.24124895932251
H           0.77892062971684   -0.19495915002521    1.22543039317340
H           1.99664627090847    1.39158103677781    0.42719710940120
H           0.80979619226265    2.14648949982474    1.07170661337303
N           2.76752560934831   -1.71606861425887   -0.54574147378172
H           3.52510309871207   -2.02826760014442    0.04881528989304
H           1.91479413727581   -1.74177183717375    0.00964294806321
H           2.78493896785587   -0.08781821851059   -0.97259290471347
H           2.66281349918059   -2.38760035114174   -1.29610823689765
