    26
        -50.45610067  Gyration_radius:  2.43380505221 Dipole_moment: 1.780
 S          -0.94665540789861    0.07317115854931   -0.47345526753420
O          -1.77642167356223   -0.15769366994662   -1.73604571077497
O           0.13877251668447   -0.93537742543419   -0.46238064361476
O          -0.37836356273839    1.41339305854658   -0.47056066442346
O          -1.82265833428021   -0.12750221929572    0.67895024065349
O          -0.42620117926796   -2.14761421437670    1.74472622979269
H          -1.34027802275601   -1.82960469135813    1.72415863787731
H          -0.10785324647431   -1.89268142387892    0.83943670439711
O           1.76983203983661    0.57512936141884    0.85216123323274
H           1.21470029274824    1.34240532085600    0.62982377483392
H           1.37281442232814   -0.12328330740249    0.27267782200901
O           1.57564541121694    1.46495887078123   -2.26930648589978
H           2.33961000656837    1.31547052377854   -1.70772657058126
H           0.81460369219549    1.57875875046583   -1.66087279816818
O          -1.24516124748543    1.25677253882664    2.76554084050738
H          -1.52798993787638    0.85505934048086    1.89649185314938
H          -2.02036145025412    1.25633872973664    3.32973252255459
O           0.73944097331840   -0.29263429393098    2.97501056230309
H           0.29790469737544   -1.16303706446509    2.56469674567124
H           1.30940308097713    0.09154390467816    2.17978509599512
H          -0.04018140597016    0.37625661243003    3.05365620225102
N           0.06269821801201   -0.61192496301294   -3.43173491607827
H           0.72212110300047    0.14112665275893   -3.21927264161534
H          -0.12987807452933   -0.62281855101937   -4.42398055754478
H           0.48046129940885   -1.49065625910459   -3.15677989331132
H          -1.07600421270525   -0.34555671258153   -2.49473231579855
