    26
        -50.45796945  Gyration_radius:  2.58084272717 Dipole_moment: 5.773
 S           1.13796913831719    2.13671261704140    0.41505156201970
O           1.71470689342940    1.00974064158798   -0.32127806002878
O          -0.23963627247297    2.36122521947523    0.05985957795680
O           1.39457111902138    2.03829242706573    1.83976911019047
O           1.94646834502791    3.42531556100654   -0.07178290511050
H           2.73691536195990    3.38935670794403    0.45876666882660
H           0.45126314548666    0.78123241524321    1.95989587698964
O          -1.99960613064190    1.16310288506923   -1.52320672970221
H          -1.50674397964167    1.81088045676076   -0.97972864141306
O          -0.17187361443819    0.02081840743205    2.09708475461721
H          -0.62915946783381    0.21852640903167    2.91806387885346
O          -0.26686877963812   -2.63226442203088   -0.92491936298964
H          -0.06604666854607   -3.49867675477374   -1.28042466616441
O           0.88940607518885   -2.37618173793484    1.43886670761356
H           0.56417923887543   -2.91461266476252    2.16286056038942
H           0.22460390971062   -2.55890534771411   -0.06853362838791
H           0.66197823599541   -1.45111534740460    1.66467671691323
O          -2.15141177787759   -0.80030444306936    0.31110225354738
H          -1.72192198186103   -1.54495733486496   -0.12558161169457
H          -1.49039722021287   -0.43019226968904    0.92065882289677
H          -2.34690280299765    0.51985249478239   -0.86973665423356
N           0.17974900826179   -0.14926023854778   -2.04417536468353
H          -0.75849393803465    0.38570341798384   -1.96367101508989
H           0.55716773027374   -0.10612044172176   -2.98346875673713
H           0.84717956548104    0.33037114730407   -1.35205008480041
H           0.04290485717217   -1.12853980521443   -1.73809900978214
