    26
        -50.45796947  Gyration_radius:  2.58085013072 Dipole_moment: 5.773
 S           0.16628423984229    0.07678774209508   -2.44935501816828
O           1.27940399988936    0.30973865978819   -1.52652158818081
O          -0.65041699868791   -1.03493534977755   -2.03538444711691
O          -0.56228396020125    1.29862426402655   -2.73514878904706
O           0.83950729754765   -0.34736001435670   -3.83428046233172
H           1.07615038139756    0.49191521261109   -4.21800426718127
H          -1.09949627904775    1.36766581768964   -1.25498966065481
O           0.89727637420151    0.23143141626089    2.64519254963070
H           1.43787054988633    0.43006216579925    3.41049585254433
O          -1.50520217686884    1.42755195879028   -0.35101739584556
H          -2.41490289037930    1.69464945797329   -0.50343775917402
O          -0.67923622953913   -2.68476998796886    0.04237194029464
H          -0.79456935297475   -2.27474157072506   -0.83881738746362
O          -1.63112158559836   -0.64283197984188    1.51445075753607
H          -1.61533188256580    0.01976969916352    0.80297868467566
H          -1.24321345677414   -2.14198464971521    0.63293901761914
H          -0.89290356645819   -0.42578604086132    2.09545648225414
O           0.14591770628770    2.49485260364199    1.50373572789575
H          -0.33950524092068    2.16314125425912    0.72091881195199
H          -0.46727393155392    3.06011535662121    1.97734310480612
H           0.68160133614179    1.09939013257645    2.22040972874277
N           1.49988329323748   -1.33341444946058    0.45314719179193
H           0.66170827624873   -2.00821539930051    0.33068017169473
H           2.38436463296329   -1.82757300883660    0.44386046760799
H           1.44585772746118   -0.65081433266950   -0.37494306994251
H           1.37963171652372   -0.79326895778768    1.32791935607267
