    26
        -50.43782362  Gyration_radius:  2.75445300318 Dipole_moment: 6.976
 S           0.50211332837666    3.05550091851413    0.07112887333286
O           1.21136293288805    1.92853213866323    0.59980775120803
O           0.10459074755274    4.07753416807837    0.95789626638115
O           1.36180966187944    3.66365553010093   -1.09334834033661
O          -0.75480929712746    2.51672617430522   -0.69667492657094
H          -0.33858880313063    1.98000174337593   -1.42307011661792
H           1.60260677970173    2.91226685766503   -1.65114119084253
O           1.21232362640243   -2.37003101497350    0.80556445840054
H           1.78779690038338   -3.07707821619475    1.09762247078503
O           0.78454409164320    1.31207346238432   -2.37628839856274
H           0.55416578072187    1.21906878295748   -3.30363228405638
O          -1.67602871050630   -0.09350344636018    0.31362190758111
H          -1.82085723964737    0.83145164997151    0.09468409961983
O           0.22840317779215   -0.97356012949718   -1.37468105107847
H           0.82517471290622   -1.40736507668446   -0.74580789205517
H          -0.55239147783300   -0.71773082267884   -0.83267483426102
H           0.69686554692471    0.38250018445348   -1.98249640134550
O           0.25147435592027   -0.09106779315029    2.11437753037428
H           0.75967614297238   -0.85356996753365    1.79285841208042
H           0.69626231834599    0.68884418735258    1.74211309640759
H          -1.05388154568282   -0.08600374988416    1.08921986834958
N          -1.39053796063655   -3.04592225857958    0.96580160592578
H           0.27712738897973   -2.70432483222981    0.87243972406104
H          -1.77799831167735   -3.75856845169000    0.36023180815849
H          -1.69837760682039   -3.23464690273361    1.91167488982497
H          -1.79282654039408   -2.15478311544906    0.69077267328131
