    26
        -50.45791862  Gyration_radius:  2.56508667133 Dipole_moment: 4.566
 S          -1.39168291358505   -1.23646838793242    1.55072838941883
O          -1.45485118678439   -1.88585251582922    0.25766347827185
O          -0.10205157480312   -0.60382896417787    1.78479113281075
O          -2.52140546904864   -0.36591924047603    1.80887577091455
O          -1.47570200391470   -2.39808346321115    2.64756990943233
H          -2.39698296753119   -2.64121472157411    2.64669917195852
H          -1.98051640595159    0.61520336442217    0.68687183026465
O           0.24596616890195   -2.06047584262900   -1.75893955851912
H          -0.48329303837634   -2.17475057830277   -1.11272086170791
O           2.26344765382469    1.51149837222029   -0.83150823056915
H           3.07104424027344    2.02641176235240   -0.83786091561403
O          -1.71870012454090    1.23768934318811   -0.03790956392723
H          -2.54592311130014    1.56567857866080   -0.39940248087997
O          -0.11078915375787    0.56666769653011   -2.21818391067169
H          -0.71025757397694    0.73309274014809   -1.47097850934430
H           0.73739239008408    0.95226797636480   -1.96979575920828
H           0.04133682524249   -1.20749128283823   -2.19728176633544
O           0.42717113887099    2.78661034671676    0.57802631256709
H           0.08152371799205    3.62501976752044    0.26599508954957
H          -0.32065290707798    2.15779295780924    0.55053808632433
H           1.62143412705370    2.00176610512414   -0.25909627155522
N           1.77937222254670   -1.04656003755653    0.06597330088092
H           1.25825148446959   -1.55301016425552   -0.73979579952053
H           1.03578552388993   -0.88080680870247    0.81986425116220
H           2.54132944636813   -1.60220345696917    0.43610699603892
H           2.10875349111253   -0.12303358659670   -0.26623009173960
