    26
        -50.45791870  Gyration_radius:  2.56516543183 Dipole_moment: 4.567
 S          -0.54132524502029   -0.99229469506515   -2.14335158948720
O           0.89773984619513   -0.85801442798599   -2.04933460585932
O          -1.15653654467444   -1.22825544108248   -0.84568256338867
O          -1.16700173854334    0.07575261116424   -2.89735858277310
O          -0.81973305741204   -2.33278831724280   -2.97111749299439
H          -0.63191072946829   -2.08329554625034   -3.87130913181677
H          -0.79567219790346    1.07747976282567   -1.72578064484025
O           2.58036617409107   -0.86024055912823   -0.00998844912770
H           2.14460558569557   -0.90143167052064   -0.88797077838321
O          -0.54442297710639    1.75717596517583   -1.05030783557053
H          -0.37348141679602    2.55880762455521   -1.55102539626491
O          -0.25996548331558    0.46001439156865    2.79650013364774
H          -0.58188539252477    0.47252164093882    3.69849174462561
O           1.55155669212313    1.49917358287195    0.77426307351195
H           2.49328310524136    0.08041734567968    0.25297793957296
H           0.87064102959985    1.56255842488463    0.08310391780192
H           1.08463186823344    1.27758191790154    1.58831599001122
O          -2.02859024379496    1.63440327610538    1.22253607630897
H          -2.20611043677342    2.57206001323296    1.31791669512605
H          -1.61917713475210    1.52419159441080    0.34184706565047
H          -0.96910887278733    0.86756750894206    2.23866941428579
N           0.41303816904255   -1.65433967721775    1.16546617333386
H           1.39310835487222   -1.42119885571166    0.76243528416070
H          -0.26465035245515   -1.52710774712214    0.34489901359931
H           0.36283666449832   -2.60093013194171    1.52288181134505
H           0.16776432373314   -0.95980856101910    1.89292275755735
