    26
        -50.43782380  Gyration_radius:  2.75367369609 Dipole_moment: 6.967
 S          -1.34189852253074   -1.35252173698980   -2.43881988282810
O           0.02224522192514   -1.14074071849876   -2.05571062074981
O          -1.77267931383347   -0.86805896566135   -3.69128460187103
O          -1.64098029001204   -2.88983338399628   -2.32982402657405
O          -2.25630837723211   -0.76031419829178   -1.31049521941005
H          -2.00896430292019   -1.32290823009436   -0.52860087651312
H          -1.31473268927906   -3.15176799748100   -1.45887962298103
O          -1.31054800170203   -2.47966272007261    0.35982052742935
H          -1.84704924572470   -2.85991598880002    1.05927947624220
O          -0.94592471801745    1.40714028550974    0.19384831873933
H          -1.66750188283270    1.05670422105241   -0.33625133876370
O           2.53887892604023    0.45981515026400    1.03990885893976
H           3.46802228751259    0.48410167923180    1.26903370301688
O           0.06746681208535   -0.68580666468152    1.55172109240249
H          -0.66177731363521   -1.85660695858140    0.82623026083354
H           1.01157867654929   -0.56799607931402    1.36656169306208
H          -0.35787192062978    0.11462568647116    1.16782111513664
O           1.20577997784601    1.17101931918532   -1.31338870397047
H          -0.16510771269782    1.45013556008608   -0.42031713506701
H           1.83271076614410    0.87485329145227   -0.63325773821689
H           0.89828003858844    0.35864278953294   -1.74933515867319
N           1.21122587065057    2.61826455933029    1.95457625214634
H           2.11727159572910    1.27181287114039    1.43191487774687
H           0.30737760131250    2.42654475795523    1.53260963521295
H           1.06565663926782    2.75107892990252    2.94757509576146
H           1.54484988744728    3.49139454136110    1.56526401892425
