    26
        -50.45796947  Gyration_radius:  2.58083333978 Dipole_moment: 5.773
 S          -2.34830045782919   -0.45625337360515    0.55681535495892
O          -1.19549617698901   -1.06123117034813    1.22756723344666
O          -2.15243917042561    0.95033419875947    0.31705289087899
O          -2.76114579022154   -1.22336834574299   -0.60353095393491
O          -3.55771837421061   -0.57438175199270    1.59341331277165
H          -3.85928691250329   -1.46849436955221    1.46225668633767
H          -1.43652013137560   -0.84566555948807   -1.36991144818540
O           2.78326066241821   -0.28399059815647    0.16919664819101
H           3.65444493685414   -0.61196548766798    0.39472833490022
O          -0.64451545935396   -0.59423833403735   -1.91291624036425
H          -0.98962090426998   -0.42393765629396   -2.79273696212847
O          -0.17218399041127    2.67288030836447    0.70519116667578
H          -1.04716763384610    2.25530675866263    0.57111643194632
O           1.55581617799270   -2.06151251580218   -1.35523158376833
H           2.34122050083336   -0.99781301056386   -0.35558706891096
H           0.67702108870012   -1.64467802125645   -1.46662264949752
H           1.89416851683168   -2.20995800123256   -2.24029088249792
O           1.09748494966193    1.51503802034222   -1.36607424221611
H           0.42291974766115    0.83690273267279   -1.54092077090745
H           0.29022978320143    2.53539205364247   -0.14844426359110
H           1.83320608198147    1.05504569363721   -0.94561001281995
N           0.74495746655371    0.52694781564748    1.84409304582816
H           0.92146319414386    0.54676492788596    2.84159956952996
H          -0.05829063476549   -0.15103232701081    1.62122649563794
H           0.42324903904097    1.49265378849495    1.47413473783779
H           1.58324352031157    0.22125423465675    1.31948517988423
