    26
        -50.46367303  Gyration_radius:  2.38495271017 Dipole_moment: 6.396
 S           0.54697039606435   -0.69155142949168   -0.78907508941912
O          -0.47741043394309   -0.73839926388990   -1.94289058224208
O           1.28572536089885   -1.91886499713145   -0.76070288120343
O           1.39612242768433    0.48794691380752   -1.01407278098998
O          -0.20599801553800   -0.47780827926235    0.46835200616002
O          -1.23838455231505   -3.07421719924971   -0.64279489678015
H          -0.31122015059147   -2.81448026974415   -0.54636458876039
H          -1.40093886176643   -3.06168835245537   -1.58883285010251
O           3.15169692902950   -0.04612279780012    0.85610545221514
H           2.69505479334882    0.18436315888063    0.01697849731861
H           3.16486805758490   -1.00687730155188    0.86016469307954
O          -2.84823526713015   -0.85592987103448    0.41058095280965
H          -2.93027573781222   -1.73231643641142    0.01904578879189
H          -1.89980557806564   -0.80227591810406    0.62634351251503
O           0.16689726203507    2.57743491509433   -0.11441100314115
H           0.64104467813485    1.81507676401553   -0.54097619388659
H           0.30976742295866    3.33046135487860   -0.69061250352302
O          -2.07505145186932    1.12843734341659   -1.23301609240137
H          -2.57597608560691    0.53204139490590   -0.63119162249522
H          -1.51941190443771    1.69037645888350   -0.67267060980030
H          -1.12850406100126    0.02087890027417   -1.78910844949807
N           1.06004300506123    1.11566751592817    1.98853095741052
H           2.03186783916684    0.77261892866328    1.76885005932166
H           0.43246353199307    0.39592839873892    1.46338088738108
H           0.86194233313904    1.16718599887561    2.98149040577132
H           0.86674802298086    2.00211405976088    1.49689694146934
