    26
        -50.45004727  Gyration_radius:  2.53801690013 Dipole_moment: 6.010
 S          -1.49753145871580    0.08935714314027   -2.14798960462627
O          -1.11541410206227   -0.84392592046793   -1.11074072080951
O          -2.39019053288854   -0.36883516095197   -3.14281429237281
O          -2.07810717446509    1.35796168069726   -1.46970644517948
O          -0.20145352003656    0.60232780922043   -2.83070627780811
H           0.54404533470502    0.66711088068502   -2.16897306671679
H          -1.80784573465893    1.44267720928664   -0.51114757174486
O           0.86999236154477   -1.05620255443625    2.39427034126295
H           0.87228331607557   -1.17929873177997    3.34414677756721
O          -1.44941091497116    1.74855869279365    1.01148554331112
H          -1.68137310290320    2.65908797060040    1.20103558235582
O           1.82568608013741    0.66001958270289   -1.21473679422632
H           2.61598889400604    0.76328939887261   -1.74709581899958
O          -1.62673794392018   -0.98723978770263    1.53737501260334
H          -1.85374901102873   -0.05259724599385    1.62769111532249
H          -1.52573080891664   -1.11441390332605    0.57707791551697
H          -0.08124298302506   -1.11234200226729    2.10972123850211
O           1.09700448828492    1.44149340391901    1.32567508548291
H           1.14494840018610    0.56615139812597    1.76121453743285
H           1.44291007196155    1.30422530693848    0.42909655033146
H          -0.45308289759455    1.67247871762126    1.14565849370679
N           1.51237316612159   -1.76543675713945   -0.40280862100530
H           0.53098849837298   -1.79840438744003   -0.67226155789753
H           1.78938186402395   -0.32300837561301   -0.90742667332800
H           1.54463180508746   -1.77662371010678    0.61227281161173
H           1.97163594463374   -2.59641068744996   -0.75031355022096
