    26
        -50.46846776  Gyration_radius:  2.39949549221 Dipole_moment: 5.639
 S          -1.43607800097562   -1.08843733401462    0.25646068323347
O          -1.11103076489033   -0.15303968043471    1.36072193770174
O          -1.74807887139607   -2.40472593740733    0.74371524967635
O          -2.68507020044594   -0.49798264094655   -0.46487038675862
O          -0.33597716212439   -1.09633732524393   -0.70111329759660
H           0.87833605066507   -3.14376071098795   -0.31800433075567
H          -2.37814469502083    0.33275402086582   -0.90148782051035
O           0.77998155019470   -3.18798558264630    0.63794744181012
H          -0.18904816185926   -3.07225102588533    0.77570335447624
O          -1.82126629603733    1.81984212470484   -1.45119094824202
H          -2.57952206308599    2.40381201835165   -1.50848078606184
O           2.15577608353359    1.25285482910197   -0.10054194211081
H           3.02686881352125    1.53909364931551   -0.37785100721704
O           0.71160351862317    0.75400901473303   -2.20289036701655
H           0.32598927639269   -0.04271599053799   -1.77209147043155
H          -0.04493077236530    1.34129781619889   -2.31551420951244
H           1.64094993162807    1.08062309144442   -0.94524019700947
O          -0.40037795907657    2.29912339519830    0.68620657566048
H          -0.72608607186985    1.45714284597368    1.07330992999351
H           0.53875490341711    2.15406152485142    0.50696355180544
H          -1.29304672954103    2.11903112502858   -0.65851554553119
N           1.37584613769315   -0.77232831151681    1.55200361218161
H           1.82693640652369   -0.75358777375671    2.46072989860433
H           1.31527108100057   -1.75982682267701    1.16330737424017
H           0.34543240330169   -0.47225172329001    1.61372741318837
H           1.82691157215918   -0.10841458642396    0.88699525616212
