    26
        -50.45283856  Gyration_radius:  2.45265965096 Dipole_moment: 5.092
 S          -1.80269543051376    1.02719265544443    0.11863109136502
O          -0.73757775172629    1.84695432895497    0.65126954960201
O          -2.48421279801021    1.57329287780159   -1.00520126249363
O          -1.19888473626902   -0.35336346198008   -0.27426618325037
O          -2.77076937031429    0.65003194836081    1.23706001261183
H          -2.26432746682122    0.03794587704542    1.88322565481159
H          -0.89980258033791   -0.22526904225636   -1.23979694424398
O          -1.38961122681512   -0.78564769728904    2.81323007518381
H          -1.57043465056013   -0.53050756361868    3.72109515552258
O           2.43896242909868   -0.37586921124244    0.06255466219127
H           3.36510781496235   -0.61738560356193    0.02432713975163
O          -0.48467894819780    0.32850417226688   -2.60228366189117
H          -1.23904119770858    0.91558499863263   -2.72933970949065
O           0.85740214536802    0.37874201600838    2.21713358831497
H          -0.46521757997806   -0.45994356228955    2.61384769680766
H           1.48367847878151    0.02043190120378    1.56639469551223
H           0.37224122346139    1.07529389211484    1.73734763080811
O           1.22380113288059    1.74111947564046   -1.23300461197570
H           0.25521740044041    0.90866998670131   -2.26427362456060
H           0.58703746689093    2.02708699872901   -0.55693489616618
H           1.79215146139237    1.08780782191854   -0.78651026774360
N           0.95996602432388   -2.16989506906354   -1.26157441265569
H           0.70020496758197   -1.71383213245746   -2.12915079027089
H           1.20737992467138   -3.12898661108210   -1.47091279502912
H           1.92930341421164   -1.08219209905683   -0.42067668779124
H           0.13479986317972   -2.17576687691389   -0.67219109491698
