    26
        -50.43987376  Gyration_radius:  2.61903906877 Dipole_moment: 8.080
 S           1.37722652515819   -0.58393732728282   -1.86075757652725
O           0.44425348222642   -1.55955131447418   -1.38145791615670
O           2.48042253760725   -1.01502143774657   -2.63464819635124
O           0.60768699886988    0.51202604330553   -2.65369971061487
O           1.88578624057167    0.24012309869430   -0.62093806067322
H           1.56147588307975   -0.19547938073457    0.22830603013348
H          -0.15166429848564    0.78430501003352   -2.08338524181246
O           1.03017715936108   -0.68031227946940    1.61814166757098
H           1.48264508753208   -0.24218805401384    2.34083891723732
O          -2.60868403079183   -2.06381681685239    1.32014901615935
H          -2.95242210185969   -2.54866675530212    2.07127631459780
O          -1.17072519851947    1.53763337009965   -1.01653880820752
H          -1.86614781773449    2.03064075755212   -1.45590728692511
O          -0.21986945909316   -3.09389091781727    0.74384683727231
H          -0.06349686079613   -2.76309740851529   -0.15577854472738
H           0.35766426525020   -2.54698510350122    1.29008672700181
H          -1.78921857016052   -2.53974263816573    1.03751615165313
O          -1.35073970562107    0.28158901754799    1.47881071039460
H          -1.40433227175147    0.65377285589073    0.58534894967203
H          -1.91923839654554   -0.52232371160406    1.45928591818819
H           0.08720644090895   -0.30753835525852    1.60064293694773
N           0.90844125835250    3.03074826273241   -0.34488144003563
H           1.54739197124860    2.24285067582456   -0.42093944762413
H           0.99674994450513    3.42121093073656    0.58461560957531
H           1.20323974088913    3.73283107120017   -1.01161053751602
H          -0.47382881239346    2.19482042815426   -0.71832301917620
