    26
        -50.44922930  Gyration_radius:  2.46956054645 Dipole_moment: 5.763
 S           1.03874124983063   -1.96462155702684   -0.17183442636929
O           1.37595400424916   -0.86484626655371    0.70434371214356
O           1.27607551696730   -3.26914031518384    0.31774089753416
O          -0.44919348468143   -1.77890779484322   -0.60426326215856
O           1.75643919552690   -1.76229586062664   -1.52206288186191
H           1.61438588462581   -0.82424264086012   -1.83962520316685
H          -1.07910366678708   -1.90342369607288    0.20555277617634
O          -1.00041536400646    2.26134010132839    0.34284163508551
H          -1.37716235488568    3.10952651588559    0.10507164152414
O           1.47119848942903    0.69531285737036   -2.31813484698269
H           2.22969534373493    0.91332505511202   -2.86243400888846
O          -2.02939449512585   -1.82860513092676    1.34606565887759
H          -2.87182759547061   -1.48945469161540    1.03444459784455
O          -1.25337483988694    0.61218670559327   -1.73539376863979
H          -1.19234049772085    1.65175552593818   -0.41128868570547
H          -0.45399064244827    0.79023078198110   -2.24913333405809
H          -1.13621783677103   -0.29315227780926   -1.40811463243684
O           1.66877579730914    1.70829443014656    0.03491391486687
H           0.77717407098486    2.04124059994088    0.25278457237722
H           1.71245271870009    0.82080718738632    0.43912630392898
H           1.59581250408054    1.18244973913362   -1.43958517599495
N          -0.71554451285607    0.13323644523010    2.43210321020156
H          -0.92824786072776    1.00876758929036    1.96342624298386
H          -1.59087982869175   -1.08026353321159    1.87975020050193
H           0.18611580930920   -0.18322993015598    2.08081817067677
H          -0.62512759467956    0.31371014055020    3.42288671158823
