    26
        -50.46926248  Gyration_radius:  2.54938011044 Dipole_moment: 4.561
 S          -0.51899218537019   -0.20574648652498    0.05856502349902
O           0.43984019947157    0.40077569418710    1.00571572698102
O          -1.47169297711506    0.79826846475716   -0.39817791061267
O           0.30111800677189   -0.58218378747306   -1.20683849749182
O          -1.12873195842041   -1.39147888231216    0.60535960844664
O           0.01578787457336    1.96326493418343   -2.24576973638090
H           0.51817706686648    1.21614659780579   -2.58391417463735
H          -0.71233424191287    1.54919303820080   -1.73274999204979
O           1.28461987421119   -1.92495614267805    2.00938824160852
H           0.44380048497651   -2.36623449143060    2.16149509051685
H           1.04601197195888   -1.00950638754407    1.77330966669710
O          -0.77878921536765   -3.81602684014695   -0.42926432208155
H          -1.01498044194622   -2.97117065353097    0.00797293639615
H          -1.40280509064797   -3.92836549095218   -1.14743097444819
O          -1.78114730128159    3.08702305358679    0.91568455529677
H          -1.84940237784902    2.25130287508075    0.40278843942118
H          -2.13065904855318    2.89251573432630    1.78663689735270
O           1.63010197978658   -2.61745627725045   -0.54415764003114
H           0.88500505040147   -1.40009973156799   -0.97845335125505
H           1.73371626822920   -2.45876886508400    0.42236155598979
H           0.91936234543291   -3.28659841178945   -0.60960313255345
N           0.74985125200779    2.79465536475890    0.14926559468964
H          -0.13401646339707    3.21885999413191    0.51280004564428
H           0.62507313237810    2.65201471787375   -0.89021324190664
H           1.57546132447616    3.33333835496543    0.38559000349611
H           0.75562446032466    1.80123361442450    0.56963959742691
