    26
        -50.45147872  Gyration_radius:  2.46520785184 Dipole_moment: 6.102
 S           1.50240375794728    0.22851907604705    1.85560588662326
O           0.19061945892177   -0.37553982546536    1.74945079500691
O           2.35603992139833   -0.30984147404221    2.84817449433694
O           2.16496419632917    0.17255735257232    0.44831121139006
O           1.34273604192316    1.74616647270812    2.03468996667334
H           0.85467370455457    2.04461091584733    1.20911462800425
H           1.95900170019379   -0.68379967879143   -0.04062505444449
O           0.15847877685119    2.41271926995244   -0.15014082173612
H           0.67876054546349    3.12068208824369   -0.53392687351117
O           1.58381256541409   -1.96271837891255   -0.84937391989306
H           2.16608620579684   -2.68384462230391   -0.60373121788618
O          -2.49836970095704   -0.66061680377098   -0.95068838143228
H          -3.42364548492072   -0.90780548300046   -0.97005303928556
O          -1.99517263320908    1.02045026225277    1.02638907674530
H          -1.55162656953270    1.79407903416091    0.65983663702015
H          -2.40051046957321   -0.00701096869669   -0.20965817649549
H          -1.28384022755593    0.49920155696965    1.44361364799495
O          -0.72778135812839   -2.39442127517856    0.20983935464852
H           0.66805309866980   -2.21056520389148   -0.50638028801954
H          -0.51443285582575   -1.82010532754861    0.96496413292446
H          -1.40662049035624   -1.90161188907607   -0.29185897391561
N           0.04145510890271    0.51583119830625   -1.95238410145086
H           0.08009347188084    0.83625022479122   -2.91184332397051
H           0.75757057595476   -0.19086958447653   -1.83041811488792
H           0.15587419064000    1.65373244039532   -0.83508172404439
H          -0.85862354079628    0.06395062290506   -1.81382584038348
