    26
        -50.43987362  Gyration_radius:  2.61910718543 Dipole_moment: 8.083
 S          -1.46554909804571   -1.42713683954233   -1.23516525836841
O          -0.61108615953670   -0.54283640610225   -1.96992075087700
O          -2.61884820813789   -1.94692047615060   -1.86879881316379
O          -0.62118748348221   -2.61224361169758   -0.68322785215789
O          -1.87324292693691   -0.69860082269225    0.09828067301776
H          -1.56649424960287    0.26088740449256    0.06454466060811
H           0.17161886644434   -2.21065016266136   -0.25164574842731
O           1.27644283847855   -1.57863122790083    0.80839824271025
H           1.99994283994985   -2.18152987393428    0.98939054246623
O           2.44809170087307    2.15396850144331   -1.47142579569236
H           2.76636419127740    3.04864453369733   -1.59663329421494
O          -1.04579918788892    1.72976948277072    0.21279892364523
H          -1.44207472174902    2.17024792669781    0.96637651021490
O           1.40586926483869    1.21756276896795    0.79698529544238
H           1.90084596593153    1.57232406198103    0.02306918663204
H          -0.07488948111425    1.56410105197010    0.45405565214276
H           1.47158933700178    0.25335227859597    0.72169650920415
O          -0.03382034577698    2.05788861668641   -2.43596757759209
H          -0.54805024794168    2.28808351789948   -1.65259465335975
H           1.58383943608947    2.10028227052206   -1.94910814904023
H          -0.18154690824612    1.10299124314008   -2.53333861166140
N          -0.65020292248110   -1.67969451544198    2.61990350136921
H          -0.68185030760009   -1.02092447882178    3.38759152984033
H          -0.89857497304423   -2.59343213380499    2.97738113379170
H          -1.35693068983192   -1.40956045179067    1.93984227715247
H           0.64554343051009   -1.61794266833776    1.58751187631328
