    26
        -50.43987372  Gyration_radius:  2.61923005412 Dipole_moment: 8.077
 S          -0.52090977886941    2.25261401519514   -0.60023644232167
O           0.02733858339465    2.01475493977277    0.70157291831613
O          -1.23444308728220    3.45200816424554   -0.83287436148546
O           0.61081562686293    2.12995426220811   -1.66142849128709
O          -1.42063850150505    1.01691816332017   -0.97266721247138
H          -1.52389084620955    0.42087959538100   -0.16648702564183
H           1.08296641011672    1.28438318850397   -1.46622128105371
O          -1.67154758369642   -0.66321690093143    0.95316860229556
H          -2.34253202377964   -1.31082812774362    0.73107488298961
O           1.62794573166478   -0.27943150002735   -1.42733349102504
H           2.48665884359913   -0.38068503316979   -1.84212433082514
O           1.60945232564105   -0.96802120490994    3.04450340628399
H           1.56099670352252   -1.46698544307204    3.86066964816983
O          -0.40418120174403    0.77673429888731    3.06703871900519
H           0.94259514396548   -0.24231082373209    3.12600339844743
H          -0.13847646991770    1.40982929800065    2.38025106004526
H          -1.10224415173460    0.26262117110055    2.64341327950359
O           0.62706435941443   -1.78987180333515    0.70616557631605
H          -0.77799509336416   -1.13665412929173    0.87720083402471
H           1.08456333172686   -1.25223420688545    0.04181916644546
H           1.07312292760891   -1.58234721380818    1.55926887330480
N          -0.38998051472683   -0.84645052650073   -3.04282438252676
H          -1.00966313038901   -0.20209134285580   -2.55736473588296
H          -0.31090812110715   -0.53504916822562   -4.00256224313039
H           0.93588431044053   -0.60284817336876   -2.07774013023871
H          -0.82199378362517   -1.76167147877577   -3.04228623726430
