    26
        -50.45123060  Gyration_radius:  2.47039733555 Dipole_moment: 4.660
 S          -2.19906985085694   -0.68041863676753    0.66786707739858
O          -1.16992929523358    0.17320638498231    1.21879360311594
O          -3.50826436217650   -0.48862195545619    1.17090800856069
O          -2.16120953932388   -0.52880846696362   -0.88256606660531
O          -1.77352961151373   -2.14979878703000    0.83621040886084
H          -0.93297722114041   -2.24369364661762    0.29330291441285
H          -1.79961961827636    0.36036812811727   -1.16466116535609
O           0.31468818795760   -2.33341854433653   -0.64852168747161
H           0.08151255646775   -2.93228877035855   -1.36073746299684
O          -1.17090788931803    1.72986741724666   -1.65812788534588
H          -1.84920091143921    2.35266976873453   -1.92371768392568
O           2.37701864278217    1.13428037415699    0.17002205269500
H           3.32157273519435    1.26371597885114    0.25798572093187
O           0.98867239301502   -0.09691799542670   -1.84095165782147
H           0.55835155250774   -1.47179675434311   -1.09198721201633
H           0.24877874398068    0.49307854310050   -2.02927651608102
H           1.56153509268168    0.38506038288004   -1.21493925344325
O           0.00130684181845    2.49163480640880    0.50505526191968
H          -0.43698957256540    1.78114493502980    1.00514537312819
H           0.92464931901486    2.19965706026098    0.40940310755080
H          -0.71216938169786    2.12539711307435   -0.84963442937920
N           1.47642541042177   -0.80491574048344    1.71717052644918
H           1.74075660860448   -0.98689410728924    2.67680511603782
H           1.49734557986181   -1.68382145961259    1.21286401549018
H           0.50567666848282   -0.49150334686332    1.71493456626256
H           2.11557695075180    0.40281731870535    0.80865326762666
