    26
        -50.46367307  Gyration_radius:  2.38491593055 Dipole_moment: 6.397
 S          -0.03701982595505   -1.18188066454361    0.00866853668173
O          -1.49493407429759   -1.46345624524299   -0.41337779711662
O           0.80267007090935   -2.25124585151239   -0.44339322358475
O           0.35881563205110    0.11390072179235   -0.58972944606275
O          -0.03413517106058   -1.02491058279921    1.47091933061746
O          -1.18857205295771    1.10855944786054   -2.52468153180630
H          -0.46585013867000    0.82823966169069   -1.93480281958551
H          -1.26340073207116    0.37008517155437   -3.13876021646351
O           2.56971476402140   -0.98183510614806    1.76008351749091
H           1.60695242507052   -1.16478200431289    1.83292242027344
H           2.86593128379159   -1.56063525404057    1.05267062464366
O          -0.74954226802271    1.39248677000178    2.04583061691560
H          -1.30925370843620    1.40553235557323    2.82426122767921
H          -0.54487806215399    0.43505059791909    1.87431409853451
O          -0.31174287555525   -1.66532438204389   -2.92035803742239
H          -1.10741315578717   -2.18903956484486   -2.80112146795820
H           0.24896034141791   -1.88923092583625   -2.16413995192906
O          -2.50987104434973    0.87383022066516   -0.19315503559009
H          -2.00746110923052   -0.59904811733570   -0.29420611138563
H          -1.92642713499013    1.30593356488552    0.44820822092639
H          -2.19849796304710    1.14170116647221   -1.08763601567935
N           1.77319906430604    1.44094854574750    1.05098343352699
H           2.36421146408878    2.20449646251053    0.74183368624541
H           1.03063477326882    1.74844696036382    1.69826865925966
H           1.21875651903783    0.97214582010363    0.23848237093225
H           2.30915294856448    0.63003123149176    1.45791494078907
