    26
        -50.46367298  Gyration_radius:  2.38503491113 Dipole_moment: 6.395
 S          -0.92425524637670    0.73370924615525    0.07545057584399
O          -1.52928702190068    0.63989165603293   -1.34168119280157
O          -1.17444280413465    2.03825180375868    0.61257192858219
O          -1.52728172240397   -0.34416705156786    0.87384424919693
O           0.52662086725661    0.45906940142560   -0.03907765946714
O          -0.25497348825984   -2.54316204608669    0.39223077816293
H          -0.81900230684882   -1.73983544327666    0.54889917484516
H          -0.86064540927783   -3.28582219231639    0.35875736653223
O           1.61091184286198    0.53095381926366   -2.47781790817297
H           1.40124962792280    0.58999889662534   -1.52836411096544
H           1.31818227263465    1.38423920192132   -2.81595251972112
O           0.04384852632755    2.89848152607447   -1.73179423305282
H          -0.74305584564562    2.85214002518298   -2.27973127732238
H          -0.27206825249736    2.74801516570553   -0.82961676309170
O          -0.56883473669662    0.42544419552889    3.18772980172046
H          -0.54056833337415    1.38117727136143    3.09310552675053
H          -1.14003292358386    0.12717708461623    2.44570399641303
O          -0.26534614912087   -1.38488034278292   -2.26088144927561
H          -0.01261003808139   -1.86718205359443   -1.45964087822122
H          -1.13679372179700   -0.18636275702240   -1.77437777497100
H           0.51040193617519   -0.83797529846842   -2.52135998246826
N           1.31083862499576   -0.94646170899175    1.92644018601008
H           1.12673918766916   -0.31476383469157    1.05802044370030
H           0.92091492060803   -1.85886047014077    1.64281498287484
H           2.29117173301928   -1.00102951302197    2.17916371605436
H           0.70831847060900   -0.49804658163861    2.66556299288723
