    26
        -50.44928169  Gyration_radius:  2.47064223348 Dipole_moment: 7.774
 S          -0.94175118432015    1.58293665367476    1.27984762125811
O          -0.10912330183770    1.86463450183002    0.12941157220686
O          -1.93138947579969    2.53848165284767    1.60363122076238
O          -1.56728521191594    0.16731157168399    1.06726173424238
O          -0.03709840796849    1.31964936993124    2.49544583580853
H           0.71647991793538    0.69743633447555    2.25071460790935
H          -2.20766033037123    0.20828070877748    0.28038077250249
O          -2.97614979719696    0.18375657106740   -1.04461545501201
H          -3.23964862759137   -0.68853524111991   -1.34546159597302
O           1.98506396427797   -0.16935712825001    1.90123487505443
H           2.69518107757044    0.15393497266600    2.45926385566113
O           0.95037428691654   -1.19029724996509   -1.87830224801893
H           1.32131400252904   -1.89208890513199   -2.41385101774380
O          -0.82292921089425    0.90437618531466   -2.30949469543746
H          -0.53162006948715    1.46363858359641   -1.56905080855116
H          -0.20531038989084    0.15414956104003   -2.31981390424229
H          -2.25386970649999    0.49550203412910   -1.66140113855047
O           2.27283109394947    0.78055949379147   -0.48162777679756
H           2.18909259714615    0.15683097377749    0.96936353176018
H           1.95737136150285    0.10658536268673   -1.11000412088569
H           1.51503779237172    1.38125606819388   -0.36184276905681
N           0.21109711606712   -2.12852134224535    0.49832467784182
H           0.64945261360679   -1.60097223300967   -1.01654196620940
H          -0.07900448177212   -3.07781902736074    0.69719309235141
H           0.98673008685605   -1.90506490649003    1.11349512280774
H          -0.54718572520197   -1.50666457591771    0.76643897630592
