    26
        -50.43972091  Gyration_radius:  2.55167246916 Dipole_moment: 8.080
 S           2.05996106184040   -0.39352596615592    1.42299131776593
O           0.78373464169939   -1.04344263337578    1.57652810522465
O           2.89092671456992   -0.30105782708197    2.56473675860254
O           2.79181017665171   -1.02485390932906    0.22023773930723
O           1.79085092066634    1.06952708727570    0.92367097632569
H           1.34828890197200    1.03707095418587    0.03410880620932
H           2.25161058770704   -1.83021433302519   -0.09156321847844
O           1.38605818649278   -2.94182120574609   -0.66846943603020
H           1.72257540620890   -3.24449247768155   -1.51508665160150
O          -2.46741223597475   -0.37805372368325    0.37622926821284
H          -2.89330066483520   -1.10359438070937    0.83541599596948
O           0.62161995951288    1.12819240742822   -1.40696399916929
H           1.12409176812668    1.69815471999960   -1.99119484496746
O          -0.90770939548118    0.86554128595011    2.17888152526020
H          -0.30998458039058    0.08961754822017    2.11756147839394
H          -0.33359082160174    1.62626090901682    2.06831259016269
H          -1.94382772589384    0.09675627250653    1.05903254764232
O          -0.59647010379141   -1.38241182966127   -1.39389817510581
H           0.54579107711708   -2.44601606529579   -0.86212490415797
H          -1.27749914670296   -1.14464702144703   -0.73787176968653
H          -0.09040471164223   -0.56953032143723   -1.53044357819778
N          -1.79043481923864    2.10890809965152   -1.04070706532621
H          -2.28650752467009    2.47598719223309   -1.84309907847459
H          -1.86214917409267    2.78394812695358   -0.28946993979128
H          -2.27161870422335    1.26634060323157   -0.73526940071197
H          -0.28640978361149    1.55735649734204   -1.27154504720021
