    26
        -50.45332206  Gyration_radius:  2.7307885727 Dipole_moment: 4.595
 S           0.35684948707600   -2.47231593844897    1.37094270347131
O           0.73760303931799   -1.36318991922469    2.25001895675556
O          -0.69649495111061   -2.07009799307352    0.44408259741754
O           1.49459636018217   -3.07053665926169    0.71741137064710
O          -0.28823778382304   -3.58590290093648    2.30479468798298
H           0.46679268808947   -4.02622068255467    2.68501155861232
H           1.74424364072271   -2.07864218628608   -1.14843486254196
O           1.07108167722917   -1.43658390368663   -1.40520704415383
H           0.28032316888108   -1.76909996588057   -0.92645012859945
O          -1.77508451948563    0.32589621329607   -0.07418622843428
H          -1.66009602785442   -0.61235673634680    0.17280322794584
O           0.66923146150435    2.81085191017185   -1.05377211587367
H           0.77038648286194    3.58450254896493   -1.60950385199575
O          -0.55402591012796    0.67014911915302   -2.43537682586531
H           0.04174635793740   -0.08768277242017   -2.46431488830247
H          -1.60792914576721    0.37066642164750   -1.04192798183718
H          -0.02989371114343    1.42277114613483   -2.11430638617797
O          -1.50113140984704    2.96167470047921    0.58455442515968
H          -1.86727080776403    2.08352661024065    0.38322956324740
H          -1.66824224499175    3.12107770451435    1.51430262808139
H          -0.10824147713135    2.98485611511114   -0.48751681519474
N           0.85228941429745    0.48143894364571    0.47638753344041
H           1.35609679665370    1.36281029506188    0.52864299918291
H           1.17039516346559   -0.09442504596188   -0.33580289171264
H           0.92342928885921   -0.15546260882731    1.33505626654226
H          -0.17841702784193    0.64229557494498    0.32956150224336
