    26
        -50.45212789  Gyration_radius:  2.45284930627 Dipole_moment: 5.973
 S          -0.37134774413980    0.07929575537261    2.26820978744853
O          -0.54641656017352    1.19559566237854    1.36148075216939
O          -1.38029676014943   -0.07089833002091    3.25281451051055
O          -0.23977064495065   -1.21279245192741    1.41245252726014
O           1.02560134911999    0.14939726871331    2.89438968539326
H           1.65073009950502    0.04994841930463    2.10829968715555
H          -1.08755443759551   -1.36048902325120    0.87827864646063
O           0.06125682555408    0.85721883250564   -2.44086240919411
H           0.14524068881611    0.85643467295858   -3.39462524571282
O          -2.36162411748870   -1.44001675087841    0.01552444834286
H          -3.11559705610537   -1.47172061005976    0.60807966325767
O           2.50273858172746   -0.01952438098345    0.80462150083917
H           3.41367928391956    0.18846609842627    1.02285200784091
O           1.37872913997183    2.01516822571045   -0.32539641151930
H           0.98259959052027    1.75725421602229   -1.17619730839701
H           0.64700783495656    1.96666547582688    0.31634450604216
H           2.14823757886507    0.77371057966575    0.29569499300961
O          -2.14962132455750    1.00576831551897   -0.80031001954603
H          -1.68979911462372    1.27664635325482    0.01436122012708
H          -1.47307532988293    1.05466112148102   -1.49881659290474
H          -2.37051469284307   -0.52352407095027   -0.39860601258506
N           0.60695146947013   -1.53749833318332   -1.43004084429505
H           0.29037026815193   -0.06397573247335   -2.11982379095914
H          -0.29061760268618   -1.96176130723259   -1.22425982502713
H           1.17544496994203   -2.22616978144637   -1.90731598673116
H           1.04764769463893   -1.33786022470003   -0.53714948903201
