    26
        -50.45332196  Gyration_radius:  2.73110363858 Dipole_moment: 4.601
 S           1.38980388975669   -1.61511385493169   -1.89256466688967
O           1.88984054232631   -0.23916542387749   -1.96011694972688
O           0.94227490995321   -1.94559451488149   -0.54322243928056
O           0.40119988477165   -1.89037176454994   -2.90573038769545
O           2.63490312391855   -2.56122876537747   -2.18091041249141
H           2.71998836184926   -2.53894445205661   -3.13003282475321
H          -1.50163309872586   -1.47913412725254   -2.05655730457266
O          -1.53544532192359   -1.25570243115618   -1.11831693132837
H          -0.73630102191222   -1.71076869503764   -0.77297835955898
O           0.62923149151975   -0.42387416605133    1.63855674278188
H           0.91922394060923   -1.12585858016566    1.02399637013769
O          -1.57029374405888    2.40110429435120    1.10605631363317
H          -2.20817239420584    2.95190809427653    1.56140379319309
O          -2.04804572587425   -0.35061531905428    1.53828699979961
H          -0.31839733259839   -0.60669073781403    1.82614287511561
H          -2.06770343687654    0.60456907268908    1.36084196046977
H          -2.22912929360063   -0.79011856918301    0.69916422924609
O           0.78506510585396    2.17775960848298    2.45431119497316
H           0.86356003447911    1.20982393554727    2.40309193233712
H           1.67297217168281    2.52872900655605    2.37525294824975
H          -0.75952231315097    2.41934567854456    1.65174656579462
N           0.01847069052887    0.89135829210877   -0.62533533979204
H           0.84087427371805    0.61683543517155   -1.25484972708369
H          -0.25071107421483    1.87148128067860   -0.64070197478165
H          -0.77572586049444    0.27122943155066   -0.90322732753118
H           0.29367221659944    0.58903726135393    0.34569271984612
