    26
        -50.45267972  Gyration_radius:  2.74527099999 Dipole_moment: 5.914
 S          -1.59210882631528    1.75282001247460   -1.79207085582367
O          -0.94606442076837    0.67093397837615   -2.53829847609093
O          -1.82693417475338    2.94473002220697   -2.53762723873255
O          -3.06318435665745    1.16912596637968   -1.42388855676895
O          -0.96031719828170    1.91946248715008   -0.48463120198708
H          -1.68284026691999    0.81960956863862    0.49010901257333
H          -3.58726116770014    1.57837678241094   -2.10422269324071
O           1.38589264537020    1.11688499266508    0.54830019996549
H           0.67554755418442    1.68974662224946    0.20574893599143
O          -2.01471802548328   -0.01063179920361    0.91523393714308
H          -2.93951536682046   -0.05553185673213    0.66532646503831
O           1.41813957133170   -2.45323594178200    1.09518157622059
H           1.79442233924810   -3.10932117081332    1.68317153071877
O           3.29783933602417   -0.76774868512431    0.05653022606538
H           3.82314538337372   -0.59941611029014   -0.72645632719441
H           2.83701934317715    0.06238723325352    0.26692579008852
H           2.17122691715923   -1.93682206824522    0.75060607443644
O           0.28765515954684   -0.30261306326043    2.52677918891857
H          -0.64098948575249   -0.21353259753572    2.27663318773711
H           0.59148339430931   -1.14824842114438    2.15638755785295
H           1.07891001406792    0.81784924186768    1.43497453579588
N          -0.01002097678195   -0.82758258973357   -0.70385535368706
H           0.37206256430693   -1.75331842655384   -0.87189406204710
H          -0.80984776850614   -0.86349625031448   -0.04313048412316
H           0.70682577669943   -0.19592870803289   -0.26521992759827
H          -0.36636796413458   -0.30449925908147   -1.58061306125535
