    26
        -50.45793690  Gyration_radius:  2.8230796227 Dipole_moment: 4.340
 S          -1.82988109143153   -1.01398980542406   -2.19970796548774
O          -1.36656577244039    0.35525933632471   -2.39112031662432
O          -2.97451239616590   -1.38566572551037   -2.96414371218945
O          -0.61834208476518   -1.94664347601326   -2.73961842976726
O          -1.88850215020308   -1.34198598940403   -0.77085094306643
H          -0.36852711571915   -1.79998226809138   -0.37990997193874
H          -0.95447996449595   -2.17216935262831   -3.60011646226379
O           2.14716223617698    1.34596904640632    2.41714264156780
H           2.90907375080961    1.03791940574644    2.90876705923184
O          -1.89127780039409    0.34188191517572    1.23898560129135
H          -1.99282370043232   -0.31756371688650    0.51059361862993
O           0.60229475200922   -1.84421525755514   -0.19772151362230
H           0.96779165029904   -2.33312017822065   -0.93754420654897
O           2.28594670037443    2.54359913967016    0.03150838253054
H           2.34763423058589    2.14247736996124    0.92753149338394
H           2.21409766336182    3.48978451226332    0.16250365080650
H          -2.77701147106414    0.57038990366521    1.52159986853025
O           0.42570988891451   -0.70498874761999    2.36530413812384
H          -0.47268324672395   -0.38042544976131    2.19613202905396
H           0.61295766480575   -1.32777137722469    1.65043442652028
H           1.49690652135534    0.60539917702014    2.43797480445589
N           0.24178438805564    0.84988154261210   -0.43960733397710
H          -0.40714753986860    1.01972204365539    0.33976595997515
H           0.98658990020408    1.57716217947761   -0.46404627224660
H           0.65886199824358   -0.09080506789747   -0.30163385587419
H          -0.35505700131927    0.77988082971746   -1.32222271030952
