    26
        -50.45793677  Gyration_radius:  2.82332939301 Dipole_moment: 4.340
 S          -1.08715739340188   -2.32933954743118   -1.61543806350990
O          -0.68275657607589   -1.18132912203790   -2.41831006429316
O          -1.95267214035439   -3.25709825267752   -2.26572778431154
O           0.28554041698779   -3.14051901309008   -1.32077520021788
O          -1.51036380234974   -1.89825283063577   -0.27835242980684
H          -0.12630243006231   -1.77815778881035    0.58342921035299
H           0.21128477419161   -3.83168782805521   -1.96967179918063
O           0.75890805140704   -1.52699227113939    0.94530756089137
H           1.34464544832849   -2.23575971955039    0.67235675497772
O          -2.17565382277893    0.52664224355033    0.46403014412085
H          -2.02954101408718   -0.41440663949035    0.20156740433739
O           1.30911406095097    2.78167147071445    1.67810638070659
H           1.92628179806369    2.92545910168821    2.39615829043908
O          -0.18747979692797    0.68199047236333    2.40234507624492
H           0.22984202582160   -0.16255983836558    2.18663779254186
H           0.73067378997704    2.03739177220414    1.96641394292294
H          -1.02582476576088    0.68777100404776    1.91430781637130
O           2.01048172936037    2.61827026723335   -0.89618816791404
H           1.85295797636211    2.74348583514713    0.06662863697191
H           1.84226688843185    3.46526700146246   -1.31075944502799
H          -3.11820370161670    0.68166269669387    0.39939331077020
N           0.29388683325035    0.54282266684807   -0.77095628158415
H          -0.55330938145853    0.94503874513254   -0.34912953709166
H           0.96499303722542    1.29314759069892   -1.03702032699012
H           0.72141930630831   -0.09354931087164   -0.07086844877329
H          -0.03303131178624   -0.08096871568002   -1.57348478294856
