    26
        -50.45267955  Gyration_radius:  2.7452740198 Dipole_moment: 5.920
 S           2.02157430729553   -0.94507895448780   -1.95941230260018
O           2.40770661940049    0.33888805218518   -1.37013891918599
O           2.51567153489120   -1.17847454514026   -3.27586231732894
O           2.74152967211561   -2.05609974983289   -1.01730813372090
O           0.59763115181785   -1.19694131651089   -1.74678632454447
H           0.49184117116833   -1.85435350119558   -0.25063122159182
H           3.51053961352704   -2.25531534131309   -1.54070419110720
O          -1.24776362511579    1.42893515168813    2.37249143180712
H          -1.80727283769068    1.65594217202227    3.11629998849658
O           0.52153922324672   -2.02490220214006    0.72413758814321
H           1.28475186434312   -2.59272517082778    0.84563612156919
O          -1.47493026156801    0.37368072118993   -1.07386263846218
H          -0.88615488708705   -0.20774982955517   -1.58911343051556
O          -2.06740739616117   -0.97761406175521    1.15295027420494
H          -1.32640314960677   -1.59710562694360    1.15333222284705
H          -1.80797469184857   -0.23956705276730    1.72965916854426
H          -1.91618859456231   -0.21293669459930   -0.41736281648888
O          -1.90486551933779    2.79802779691277    0.10363649230570
H          -1.94219872048297    2.02765480769599   -0.48868024954769
H          -1.53627539032539    1.99880382059688    1.63459428722102
H          -1.65488522542983    3.54818422392151   -0.43685395260397
N           0.70455512733346    0.66247562745155    0.49578607995432
H          -0.18820080567204    0.75527376020255   -0.05157418884736
H           0.77571029943884    1.38569603951052    1.20507424811473
H           0.68803936427623   -0.28393180726737    0.92193864220628
H           1.49943115619729    0.64923368075158   -0.23724586885760
