    26
        -50.43982541  Gyration_radius:  2.40980900652 Dipole_moment: 9.263
 S           1.06502810498239    0.88991011683953   -1.32993879795032
O           0.74843737748666   -0.53298323836565   -1.19039323272263
O           1.40918842710459    1.30838196036912   -2.64374881395993
O          -0.02923938842843    1.67784646475340   -0.71653027917891
O           2.31195190205255    1.10951882885708   -0.37182486910834
H           2.07719282679079    0.51401523410397    0.34808080002463
H          -1.25530533540186    0.83217800895892   -0.56359185777813
O           1.20767507566359   -0.19834715880176    1.83941699974772
H           1.69372788369150   -0.47533987294587    2.61799881045496
O          -0.10260210423153   -2.99036711611113   -0.77468708996696
H           0.67128530067528   -2.43807704536754   -0.97997394076988
O          -2.07253787306467    0.26337660318996   -0.34551080358704
H          -2.69975776497048    0.85133599692224    0.07831565262414
O          -1.39339702000702   -1.48247060124678   -2.49597798895695
H          -0.73566207446753   -2.72572150885837   -1.49130759321449
H          -2.07624253893147   -0.95896847546145   -2.06420462488602
H          -0.56606565211804   -0.99107511528012   -2.32616070545343
O          -0.89492440487292   -1.50700896051452    1.04646233012658
H          -0.56837188267215   -2.23752482881162    0.28971345406419
H          -0.05382137152304   -1.03782089890079    1.34328253286857
H          -1.42278185684394   -0.80717119460614    0.50190723585629
N           0.49950581894944    2.29268052687775    1.91412570989401
H           0.90880951032324    0.76498814883578    1.98858138157504
H           1.29115196201664    2.91597331315266    2.01141940138370
H           0.27083233866583    2.25629413364014    0.91149338067717
H          -0.28407725086895    2.70637667877372    2.40305292823234
