    26
        -50.45123051  Gyration_radius:  2.47050361387 Dipole_moment: 4.657
 S          -1.88715691359988   -0.39675546082362    1.42430937994338
O          -0.79242751754534    0.54781121595163    1.40004977425266
O          -3.01182923340568   -0.03292592551724    2.20302827285861
O          -2.29247862633082   -0.69121611236075   -0.05122375071892
O          -1.35326115078206   -1.77005416378220    1.86889054665370
H          -0.69467242800594   -2.03922283743928    1.15904009306008
H          -2.06888122942680    0.06935033852977   -0.66140423349631
O           0.24230839033524   -2.43040679301785   -0.03303165987028
H          -0.14973338810647   -3.19832695992379   -0.45352855529458
O          -1.67323901097611    1.22193469019597   -1.67633892920171
H          -2.42993027144961    1.76349434635111   -1.90564967315259
O           2.26735317908919    1.06505331335513   -0.82960880654180
H           3.19099661357552    1.19276881477434   -1.04655638637363
O           0.44211121899869   -0.64393190802400   -1.94243177226894
H           0.30848650191971   -1.73717735696727   -0.74965773337029
H          -0.35078001832295   -0.10920040845423   -2.07090757279704
H           1.14090291161211   -0.02232791923642   -1.66415901199657
O           0.01164778103078    2.53198770896384   -0.23499235875379
H          -0.23281849329794    2.00692300684749    0.54698020042919
H           0.88564873323555    2.19599920066196   -0.50044853798841
H          -1.02956402199831    1.81724404217164   -1.17436371481759
N           1.93441594936624   -0.33105679535079    1.38507147982863
H           1.85926061117651   -1.31675374617077    1.16142176298488
H           2.23217889268600    0.55127279585519    0.03418573878748
H           0.98666346001382   -0.00154528895956    1.56903904497205
H           2.46479807019528   -0.24293781763500    2.24228639286033
