    26
        -50.45267969  Gyration_radius:  2.74550004955 Dipole_moment: 5.913
 S           2.39654549297362    1.07039100197888   -1.39025886009102
O           1.75622868467803    2.09543158617223   -0.56331613975070
O           3.10301343982748    1.56423184391734   -2.52543601640226
O           3.52566312051627    0.41566989642719   -0.42221277072475
O           1.47645803795904   -0.03946922325496   -1.63106728180199
H           1.61731713113274   -1.01176914493553   -0.32102885584065
H           4.30118342504558    0.87625823821603   -0.72466389496255
O          -2.19814322537905   -0.35441745726425    2.06667972784902
H          -2.86649001308998   -0.73310105772749    2.63903587286056
O          -1.18594685982244   -0.31597050026094   -1.40148124208740
H          -0.29508329923805   -0.24772841255778   -1.79106218822631
O           1.61313814396860   -1.39343762032592    0.59248221548657
H           2.53412171886042   -1.38655810674915    0.85985490529739
O          -3.26406378404893    0.89688593637474   -0.11289396840458
H          -2.70170665942400    0.46704981293586   -0.77969584534348
H          -2.68213749944028    0.09989356170955    1.35122264115522
H          -3.49815250139238    1.75679680242181   -0.46370506253325
O          -1.05309532833856   -2.30257433405520    0.37947652624945
H          -1.42682338452225   -1.75703180253482    1.09169973714817
H          -1.22050785270908   -1.20346735022776   -0.97608679054580
H          -0.09741289427976   -2.31476987978882    0.51868486214410
N           0.01664918898221    0.78205004433360    0.75426171470053
H           0.56516196727695   -0.05186831580098    1.03934800660822
H           0.71831769640674    1.45911876282327    0.28675361746898
H          -0.62796301133168    0.46329780338593   -0.01256078158920
H          -0.50627173457088    1.16508790480465    1.53596988131241
