    26
        -50.44543370  Gyration_radius:  2.51819053503 Dipole_moment: 9.667
 S          -2.46347600821933   -0.48428644791748   -0.65104546997131
O          -1.40131393196456   -0.95825586895818    0.21191916580472
O          -3.78598912686626   -0.70320364421449   -0.19438573301680
O          -2.21151309001482    1.04641557967338   -0.87880664352549
O          -2.27633397054453   -1.04822853987457   -2.05881214518671
H          -1.29640187331369   -0.89741007936985   -2.29760548950998
H          -1.61238181556684    1.42979790425340   -0.19312529012016
O           2.34005047345237   -0.45167128443307    1.03683284867763
H           3.11389029193359   -0.42618116598170    1.60013519745440
O           0.20811668492073   -0.67099521853172   -2.43414755792572
H           0.50889942406516    0.13332508767898   -1.98216125940866
O          -0.47209201984320    2.32655361542762    0.61844442520970
H          -0.63637386916207    3.21892998199870    0.30618112860751
O           0.85904871268274   -2.32102382463462   -0.47168361497093
H           0.00025450556759   -2.04931291975326   -0.10601169714291
H           0.54506304840120   -1.41439305147250   -1.87502399838515
H           1.52109176515002   -1.84475410152798    0.04959880746204
O           1.53132359867615    1.24420816136756   -0.84838287817255
H           1.87784315347258    0.58692506535290   -0.19889782971360
H           0.29223990790051    1.98468321320280    0.11105111411889
H           2.29107574550167    1.60629330940460   -1.30733268721743
N           0.15183754857949   -0.04073894524916    2.41487390750787
H           1.53243413415497   -0.31796652183392    1.63437523400755
H          -0.05114803283365   -0.44686613001806    3.31933824563077
H          -0.06996986915875    0.94730180145933    2.45464525997618
H          -0.49617537699082   -0.44914598602426    1.74002693964359
