    26
        -50.44415772  Gyration_radius:  2.47643849816 Dipole_moment: 5.575
 S          -1.27848608609154   -1.86932189911238    0.58848502461217
O          -2.27101920249151   -1.02006594582481   -0.02972485771279
O          -1.69135340785737   -3.12578256892444    1.08955520270336
O          -0.11293211675384   -2.05038159840065   -0.43687367998191
O          -0.56824578127283   -1.04701734850005    1.69439951364563
H          -1.07818439168626   -0.14402028705058    1.74976648173073
H          -0.49045663638466   -1.76112533461919   -1.34288314026345
O          -1.84718146271555    1.09840815239908    1.55776008468163
H          -2.44196213675219    0.69546053000905    0.90875937630638
O           2.07182497799197   -0.33239345107614   -0.76794456371472
H           1.54845176444619   -1.13737372278793   -0.64718410404107
O          -1.21979695011824   -1.05618546423183   -2.47599251708285
H          -1.97895057955240   -0.88540251146754   -1.89682818141501
O           0.07319988343678    2.26993578476523    0.15447938019707
H          -1.22277960432353    1.67631668679815    1.05221733370903
H           0.86013183947370    1.88394110614459    0.55620678642125
H           0.07419187193538    1.98280756131142   -0.77438660374882
O           0.45844721454275    1.06492076339219   -2.28977733590406
H          -0.72341121131738   -0.21425985178495   -2.54551894702068
H           1.14232505327981    0.53554738880300   -1.79524803438804
H           0.89371959438696    1.41648760150894   -3.06763423237798
N           1.93330397402293    0.55855460407548    1.87191643410577
H           1.75141897221714    1.36573271360082    2.45906679032772
H           1.18131767978498   -0.10610261010499    2.04582222144086
H           2.14877624294415    0.06403543441200    0.12126019457430
H           2.78765050887638    0.13728427670613    2.22030137314698
