    26
        -50.44543321  Gyration_radius:  2.5176713216 Dipole_moment: 9.660
 S          -0.45848327144012   -1.94528792268204   -1.65128671556219
O           0.13405338760103   -0.62518925479862   -1.58851373913810
O           0.08357199995834   -2.82931725970887   -2.61574651793810
O          -0.33754879339159   -2.56362408318612   -0.21542864394471
O          -1.97267346472863   -1.82528424212695   -1.81645435557423
H          -2.28046117039711   -1.14479167930494   -1.12168341410273
H           0.34949779426235   -2.10743982726185    0.32865184286659
O           1.22040042974152   -1.43442362195260    1.57449847332124
H           1.15737725468981   -2.09724979651209    2.26555210632214
O           0.61510759404569    2.40824188803334    0.75766589357149
H           1.07327057227326    3.16596975455415    1.12209141784257
O          -2.53120082323560   -0.04492265799279   -0.09270276052349
H          -1.93445883309659   -0.10287597123484    0.67036100074334
O          -1.12051047462867    1.78599635840562   -1.37867634163013
H          -0.57933172009050    2.21205197572362   -0.69851487027760
H          -0.60203293091780    1.01938968964843   -1.67638271417894
H          -2.21322094922848    0.74181432513366   -0.60153371549422
O          -0.69166896636171    0.44030388296233    1.98421983032782
H           0.55930579872878   -0.74323125814501    1.78342238092483
H          -1.13670361496379    0.78109891305488    2.76184390102961
H          -0.26690900917820    1.21152701177464    1.53853544340128
N           2.29706959507017    0.70130660918465   -0.29723999508434
H           1.62316972310581    0.21697017250016   -0.89176709385657
H           1.31744730457473    1.80784843541550    0.34112238059659
H           2.60290032105220    0.02305280750002    0.39086830161568
H           3.09203224659310    0.94806575101311   -0.87290209530319
