    26
        -50.44543374  Gyration_radius:  2.51822063759 Dipole_moment: 9.667
 S           1.53729223034103   -2.08819400179648    0.07019035581671
O           1.41875338399129   -0.74598962003106    0.60131506522910
O           2.22574264046401   -3.02361206116800    0.88034084520603
O           0.08045964668192   -2.58855575020057   -0.22264664669916
O           2.14205914239675   -2.03788062568680   -1.33214499437683
H           1.62908493977695   -1.31556619501687   -1.83748284362930
H          -0.59817237707934   -2.06169278720323    0.26521548799434
O          -1.97962632703735   -1.25718564013472    0.72056650568847
H          -2.67740185475271   -1.86442174781601    0.46519624011469
O          -0.68928212084567    2.48326390774099    0.33703897466428
H          -1.10251613686901    3.28457036390360    0.65950206103305
O           0.81895988707170   -0.14586408293918   -2.39236023913092
H          -0.08671496607520   -0.11824679430345   -2.04485850826548
O           1.79635754285011    1.62588054033433   -0.68867506372589
H           1.28137045225585    0.60812010241511   -1.94904449479006
H           1.02849420975234    2.12532685481686   -0.37577797290505
H           1.86154076180443    0.85741689804075   -0.09678937747662
O          -1.65138203512041    0.57418189132397   -1.24842205718619
H          -2.23363470338546    0.96011123176836   -1.90487523262888
H          -1.28235509689686    1.32198084190848   -0.72068102549922
H          -1.92562645964379   -0.57613483941520    0.01937233305049
N          -0.32462144502097    0.76002432465036    2.27426558511298
H          -0.54931735830964    1.87763574514771    1.13758638371490
H           0.01443375321362    0.98880663105271    3.19998443102338
H          -1.12900639657813    0.15155050339223    2.37317805470613
H           0.39510866713426    0.20447427926006    1.81000612296942
