    26
        -50.45123440  Gyration_radius:  2.52431685666 Dipole_moment: 7.064
 S           1.38329439636004    0.40522084628551   -2.07496820791913
O           1.89853402144102   -0.46132142674276   -0.99115248071313
O           2.24098380356849    0.50588094881672   -3.19848047153607
O           0.03938077272655   -0.33182160599121   -2.54481903282647
O           0.91949890492402    1.67196229446846   -1.50112454074070
H           1.20763463963085    1.52123328018750    0.10879248814375
H          -0.64858834494840   -0.06463205807170   -1.91858717622841
O           1.31921589513159    1.32353810083277    1.06698288608599
H           2.07654466204574    0.73432927544760    1.08813602777970
O           0.14507417064242   -2.14909885833620    2.53788029999700
H           0.94479915137657   -2.07638383673606    3.06050783109706
O          -1.91984954374698    0.02364488774974   -0.59251942687754
H          -2.78119513520658   -0.05215071729438   -1.00629196570708
O          -1.30095450420760    2.52292624258677   -0.42571503155989
H          -0.48105943054729    2.39732510640386   -0.95643121261119
H          -1.74659941636074    1.01002015739864   -0.49938676281527
H          -1.00159382580487    2.83033719238328    0.43420208838245
O          -0.86353607552234    0.24937657980396    2.16938498842926
H          -1.47113095617510    0.20544751501410    1.42447058394840
H          -0.30239929792026   -1.26482341098546    2.58729395152766
H          -0.06212547833327    0.71700827165252    1.83797541863980
N           0.06864057468249   -1.96646698014755   -0.11785582936199
H           0.18460026412100   -2.16851518623341    0.90995217673231
H           0.02688489878113   -2.82321037290169   -0.65927071136598
H          -0.78779929238643   -1.41705266567417   -0.25428027919936
H           0.91174514573140   -1.34277357990734   -0.48469561137516
