    26
        -50.45123435  Gyration_radius:  2.52386163508 Dipole_moment: 7.077
 S          -1.53450744403806   -1.23949415474269   -1.57531003147939
O          -0.09816920831470   -1.58865607020146   -1.49611770264551
O          -2.28316420179758   -2.05096130589055   -2.46358691506607
O          -2.07357587159055   -1.50786023674218   -0.08979797564023
O          -1.67019690018694    0.20920346354101   -1.75395060861735
H          -0.12387383836163    0.76323615582653   -1.79242135180520
H          -1.83959238785806   -0.72480146136128    0.42890965705170
O          -1.11317558604749    0.49062676528880    1.59978426811798
H          -1.70812348814955    0.57120356112252    2.34709448738994
O           0.82032093038356    1.02988798453056   -1.70931214149773
H           1.29806699260884    0.27775067318771   -2.06603686513118
O           3.08231779899773   -0.49660532699081    1.15523899349559
H           3.75462966344433   -0.50429711884323    0.47265665824379
O           1.52371892294929    1.58965175580416    0.80542581337485
H           1.30065123888317    1.47650914362145   -0.14769902379828
H           0.70640155646670    1.43360070471370    1.28878808833970
H           2.64514431308633    0.39299521898221    1.10674082290003
O          -1.74796083061869    2.27068503739794   -0.15617221889969
H          -1.90743427660725    1.58988710824458   -0.84984595798012
H          -1.36180895794769    1.23516665651964    0.97077550684440
H          -1.02942701881902    2.81241167747138   -0.49361401877032
N           0.67987523564887   -1.61759455426983    0.90592353185774
H           0.08567348160294   -0.91761818433544    1.36508035065632
H           0.52838500826439   -2.53230342645606    1.31724870890971
H           0.37860084018979   -1.64224534332499   -0.16324991609556
H           1.68722400780327   -1.32037872305985    0.99344786022404
