    26
        -50.44619979  Gyration_radius:  2.55318304589 Dipole_moment: 7.612
 S           2.05412818387731   -0.57355613544426   -1.13976187043297
O           1.42170856992887   -1.57273139746179   -0.30802367745580
O           2.89322640001726   -1.03941577694920   -2.17836072635660
O           0.91006797506716    0.33553232031809   -1.69951731392864
O           2.83242018793562    0.41949801217772   -0.25677564515020
H           2.35127108607790    0.65259587900621    0.60131384962613
H           0.25366001018444   -0.35593630659996   -2.05446778772364
O           1.69487864507559    0.97911651323998    1.98414675073645
H           2.37130314519525    0.83910644175001    2.64961287833823
O          -2.09490467339431    0.37344092113922    1.04919879350585
H          -2.61601526402985    0.75067051430665    1.75892421964141
O          -0.52913833134753   -1.65469781633039   -2.26228592872011
H           0.01315736690554   -2.20196581087791   -1.68103761098416
O           0.09555420536876   -1.03735329932864    1.95780541456645
H          -0.76451915088275   -0.69754857562541    1.65122230176009
H           0.52792889631327   -1.42824961349124    1.17466008845559
H           1.04653095438635    0.20990811406512    2.07481869414126
O          -2.84170012305868   -1.27968362452568   -0.97481583790086
H          -1.41414746987247   -1.58956567624943   -1.83027876761353
H          -2.60905138472107   -0.72744278705090   -0.20441213407935
H          -3.49780391463711   -0.79429315204829   -1.47722720805356
N          -0.37767811258234    2.18737448513484    0.20194303444345
H          -1.48922795004967    1.10181556242232    0.70810905587751
H           0.33790073154381    2.22999271893861    0.92028379675632
H           0.04679050637260    1.73784781552057   -0.60551683309173
H          -0.61634048968018    3.13554065396057   -0.05955757633055
