    26
        -50.45123054  Gyration_radius:  2.47075787855 Dipole_moment: 4.671
 S           0.21752254560905   -1.98646240964204   -1.32501865372019
O          -0.57526104477087   -1.58417595827274   -0.18438649965310
O          -0.25782541491127   -3.10137160932744   -2.05634993193914
O           0.39324752582880   -0.74042188607711   -2.24407855287705
O           1.66674291660304   -2.22788093463901   -0.86704218370595
H           1.98548755653776   -1.33756607658485   -0.52705983424466
H          -0.35982482154823   -0.08942238762287   -2.14382301937450
O           2.43725857366487    0.10230413703325   -0.10750094198021
H           3.13305821054543    0.36205524581029   -0.71468211579871
O          -1.49737962338701    1.00107726509635   -1.96766369743791
H          -2.14044755381498    0.95697468550654   -2.67691631454377
O          -0.80739055698583    1.56506633267773    1.96749138679954
H          -0.82207641875637    2.09198970516930    2.76666230645368
O           0.61002913895227    1.96983798758016   -0.33825015633290
H           1.72755324151915    0.79954828745159   -0.19950864238178
H          -0.02502138732906    1.82060898527626   -1.04921560856700
H           0.09298117790223    1.95191720016826    0.48918173351526
O          -2.51646831054118    0.22789861642414    0.26764435151011
H          -1.98958033473221   -0.58975053265107    0.23756839665821
H          -2.08759841606904    0.77895870429966    0.94540707595547
H          -1.98300010715462    0.75169583075781   -1.11761835510876
N           0.63143477225113   -0.63128896891674    2.23374916671411
H          -0.26535328542135    0.74108280417089    2.16370710755230
H           1.58943958530172   -0.44950760090088    1.95730418658124
H           0.64725298107953   -1.25285987833142    3.03206668871380
H           0.19521905962747   -1.13030757445379    1.45833209721255
