    26
        -50.45123445  Gyration_radius:  2.5239172806 Dipole_moment: 7.072
 S           1.68846979776255   -0.98660028880388   -1.59637516169662
O           2.09003738037316    0.06522735769852   -0.63528708224084
O           2.74925378147527   -1.48269077037887   -2.39420713320476
O           1.17581537183343   -2.18211532012638   -0.65950911752069
O           0.48829248806665   -0.55023253988636   -2.31629941402353
H           0.16199888097212    0.93876233136978   -1.70310504505776
H           0.26553638530780   -1.96272907723249   -0.41415764414335
O          -0.02448598036992    1.77746281941990   -1.22219062834274
H           0.84735977508860    2.09099243157711   -0.97167841504218
O          -1.28581545900002   -1.47955153834754    0.44557034102149
H          -1.76267694376279   -2.28135278552475    0.66607794989299
O           0.17587031239137    1.90277131183591    2.72570724430920
H           0.56619107454849    2.76388729698680    2.57044956971277
O          -1.63486786842940    1.43280409179891    0.88035799166543
H          -1.10767476038128    1.63221207820422    0.07217585700407
H          -1.80006319317004    0.48498374357397    0.86141827199890
H          -0.62258973872344    1.84812076340764    2.13897462481662
O          -2.07968271295950   -0.65548973898390   -1.86651259064993
H          -2.33132848302486    0.27010897613030   -1.92657079540202
H          -1.17022853031247   -0.70188849378379   -2.24181824821337
H          -1.66606271839827   -1.16739179369573   -0.43175998543992
N           1.05570101246751   -0.35845291328805    1.62905307060399
H           0.84616066047417    0.54109270921913    2.13681443248526
H           1.65095049813003   -0.96449035885292    2.18333257803993
H           0.17088617062028   -0.83097728726819    1.41066776741151
H           1.55295278903835   -0.14446301505238    0.65887157200994
