    26
        -50.45123442  Gyration_radius:  2.52429325886 Dipole_moment: 7.070
 S           2.02473031858797   -1.41747761469165   -0.52432983040240
O           0.92695479460604   -1.96031302832465    0.30707053368603
O           3.07301215818048   -2.33657999247941   -0.77797893025085
O           1.31377473766981   -1.08249508137018   -1.92159092390049
O           2.42615081564092   -0.10873379971846    0.00030371349270
H           1.44601548952087    0.12972207398700    1.29650739516280
H           0.88712698442880   -0.22108013699542   -1.80841010967369
O          -0.29236043808249    1.17481380992824   -1.60412779080839
H          -0.39587769454388    1.59906650998150   -2.45747947440201
O           0.76410615568719    0.24670287178149    1.99722166331089
H           0.59106959279472   -0.64944055441598    2.29407098756275
O          -3.02437830744401   -0.59502953044708    1.25671358120906
H          -3.01078554572822   -0.94141392567807    2.14991753935049
O          -1.43017868491994    1.48934039005372    1.11755197332218
H          -1.22312544054809    1.64416365080702    0.19065354020649
H          -2.57465125226369    0.28876935914903    1.29307292143145
H          -0.61615413552934    1.10299778131876    1.51621277948534
O           1.61380333916941    2.35019989490325   -0.32275425435590
H           1.41926764853201    2.61636597629115    0.57999703834844
H           2.12942791792165    1.51516863179174   -0.24152706514182
H           0.41877329384453    1.69812618701186   -1.12252672971558
N          -1.31598611793076   -1.31310817207306   -0.65588378741046
H          -2.04129972863059   -1.17798519351823    0.09663888337054
H          -0.35416782752692   -1.64297014620519   -0.20831927593751
H          -1.61833752605737   -1.99832371969978   -1.33992748007033
H          -1.13691053744275   -0.41048625130357   -1.11107689771957
