    26
        -50.46846780  Gyration_radius:  2.39955830523 Dipole_moment: 5.639
 S           1.78463527100369   -0.32485397066885    0.15200840967660
O           0.89373919910100   -1.51077968552613    0.15881304815039
O           2.94242059558243   -0.52913863502127   -0.67573938831266
O           1.01471066873212    0.84746468489416   -0.24817014977463
O           2.23905314211482   -0.10968008559040    1.62720267957436
H           1.43056819875159    0.16650145207260    2.12216472963345
H           1.62080275674486    1.30460463572885   -2.53643086598482
O          -0.02134915974129    0.44659256015619    2.92076936133708
H           0.09506170537518    0.16515304726479    3.82989276240707
O           1.72391577089394    0.39684463594537   -2.83775350762020
H           2.32257503687958   -0.00298243701682   -2.16459282545822
O          -2.40666996348364    0.31707055100584   -0.57798238298457
H          -3.22476216703733    0.72076128852441   -0.87016422734413
O          -1.35336727577928   -1.31900281141183    1.53299381256834
H          -1.91002468348790   -0.88036447688875    0.87498525583750
H          -0.52391861069089   -1.55120185295900    1.06093245340969
H          -0.60258194091975   -0.23829003575067    2.48493600225012
O          -1.04357445104818    2.04910631773398    0.79891867620905
H          -1.92502178765480    1.02242028771928   -0.05000824170636
H          -0.93020437986713    1.81812537894966    1.72830139561957
H          -0.20422419444707    1.74998470691613    0.38051141821078
N          -0.41152917715311   -0.91402497963920   -1.97279327765268
H          -0.73838528130882   -1.65640400375165   -2.58242118422158
H           0.09890709803358   -1.30373593450949   -1.11055773387946
H           0.33254052447154   -0.31807525720025   -2.44294835513236
H          -1.20331686507036   -0.34609537096941   -1.60286787481037
