    26
        -50.46788080  Gyration_radius:  2.39863526433 Dipole_moment: 5.649
 S           0.99116534617418    0.66917485347825   -1.35285235257934
O           1.62018801983057    0.78327481948287   -0.01592216474431
O           1.93431078634372    0.26537423035348   -2.36036510090476
O          -0.15152084428229   -0.23373608798642   -1.26884085636122
O           0.44516897608341    2.08730033120752   -1.70484051224751
H          -0.28926111386203    2.27029067999093   -1.07122865021528
H           0.57681024043081   -2.33759382118519   -2.27544483446193
O          -1.60476499579586    2.47202048291191   -0.04316471369741
H          -2.21717695225438    3.08027243926348   -0.46023614168883
O           1.47827798095404   -2.31001254692716   -1.94153831759116
H           1.79797439860079   -1.41604544198136   -2.20686219234509
O          -0.95037449092752   -1.09225792496094    2.02431601711974
H          -1.14259803707373   -1.33292100916838    2.93149418320926
O          -0.02888671422092    1.35082843738753    1.96763421177145
H          -0.65091453142807    1.96322567070122    1.55454098925853
H          -0.63170728571440   -0.14323017013405    2.04975869103172
H           0.68142321938595    1.23915486265921    1.29790896311742
O          -2.47971048985900    0.01681626990308   -0.11850816596245
H          -2.04315934760914    1.57134937176966   -0.05975858510420
H          -1.70135519571607   -0.17205206114883   -0.68815716941669
H          -2.28134232359841   -0.45788688514089    0.69948885675447
N           1.33372023479715   -1.68857864048210    0.63257241506663
H           0.39610249681360   -1.69552429663744    1.08348624286517
H           1.56701771155806   -0.65271981715553    0.46139732282930
H           2.03157126551197   -2.14060824519063    1.21437028410143
H           1.31904168585525   -2.09591551101090   -0.34924843980815
