    26
        -50.45123456  Gyration_radius:  2.52411501043 Dipole_moment: 7.072
 S          -2.41997312888746   -0.70496419597039   -0.15736135563452
O          -1.37100075087493   -1.46245460144915   -0.87641809237922
O          -3.72435454095262   -1.24115894417339   -0.29549584090348
O          -1.99432470309864   -0.83443706121908    1.38278764971400
O          -2.27387431362972    0.72315669639851   -0.45445249328405
H          -0.99024896364759    0.79911293089224   -1.47685993672507
H          -1.31362099402683   -0.16290539566239    1.53284488423643
O           2.91264735427403   -1.40026009457001   -0.79800045941916
H           3.00710133582520   -1.59057606195448   -1.73225856228271
O          -0.15941670002652    0.77582213596596   -2.00484844228537
H          -0.19850112865400   -0.07503080079251   -2.44723099943009
O           0.24461041646584    0.76335009231728    1.84313929028674
H           0.26704140540732    1.00008335043915    2.77178268069655
O           2.03213671346209    1.05817033779585   -0.50477671187267
H           2.77072313073030   -0.42082713706593   -0.72538963719098
H           1.25887760010758    1.03313363587813   -1.11497403189421
H           1.66703536049284    1.13902669654847    0.38189871026261
O          -0.86218628107875    2.68629284283466    0.52660942837113
H          -0.14204170259232    1.56029971597442    1.36670304906978
H          -0.38892646734784    2.99945497902172   -0.24900569577658
H          -1.56945679774359    2.09608991517962    0.17824384792669
N           0.66619982780635   -1.76198061433200    0.58545397958393
H           0.57679046275768   -2.59963421344543    1.15043951924271
H           1.55520922143345   -1.77503992469803    0.01957794041275
H          -0.21509526178330   -1.67744225097676   -0.08557565221266
H           0.66464890549756   -0.92728203291206    1.18316693147453
