    26
        -50.46846779  Gyration_radius:  2.39955456046 Dipole_moment: 5.639
 S          -1.75300982589196   -0.41076016696480    0.26762038505655
O          -1.02075041873212   -1.24701286270392   -0.71452155894423
O          -2.57889399931940   -1.20444928255094    1.13675273873502
O          -0.79640315126412    0.40775523715847    1.00395626263029
O          -2.65600898203853    0.55075266507793   -0.56256481594129
H          -2.03996769941422    1.16526459948286   -1.02922126606276
H          -0.55830931909093   -0.61719890452344    3.17198321522226
O           2.47909532971491    0.24117761624214   -0.15315148892543
H           3.37900854315029    0.50697799503108    0.03958151741085
O          -0.92174018045976    2.04250209980860   -1.92607471886367
H          -1.35997418094707    2.32248247563487   -2.73157709244196
O          -0.63165712052181   -1.53749459626904    2.90148776548222
H          -1.45322281432272   -1.55296921828616    2.35732338834645
O           0.64297143833131   -0.00502861280622   -2.34670155506351
H           1.42342719256636    0.04422785486479   -1.77776622591486
H           0.00333140670035   -0.57353849857064   -1.86464266339791
H          -0.28861629828123    1.31571438363058   -2.18638113171850
O           0.88636493775432    2.25168565503209    0.26523022268933
H           0.21359487636998    1.65888392979603    0.67135936300763
H           1.91042474086724    1.05085895586111    0.01808836379880
H           0.44865459631267    2.58463082801907   -0.52693854917563
N           0.96948328356591   -1.81795838863997    0.80758086043806
H           1.41719844174186   -2.72476421344153    0.72478311681971
H           1.63681070725280   -1.04218626165092    0.60963587245736
H           0.16821173699272   -1.70448242579440    0.09980963376677
H           0.47997674896164   -1.70507086343250    1.74434836058865
