    26
        -50.46573386  Gyration_radius:  2.53480747897 Dipole_moment: 4.217
 S          -0.32267079250156   -0.91681443577325    1.80761441612307
O          -1.71905478199941   -0.90692739116322    1.40170653465910
O           0.55231137359583   -1.55647354373870    0.84858819658503
O           0.13815127876003    0.41281849254201    2.19878489339552
O          -0.24455433077147   -1.81329674375906    3.11548409522670
H          -0.87026877196456   -1.41628636614454    3.71385784580472
H          -0.88092304761361    1.53201187589914    1.29732875045619
O          -1.59674788836271    1.59612296829450    0.63571944942763
H          -2.03209214312235    0.73288203733199    0.76691063336312
O          -0.61325785225312   -0.94347794955337   -2.71021053568451
H           0.20483806459299   -1.34993329945925   -3.00180999952419
O           2.24500084603214    1.82317520025919   -1.03963566608797
H           2.58568027155057    2.66857867489685   -0.74383476472145
O           2.50570317094431    0.25594545607362    1.03454221381229
H           2.22634198678030   -0.63538527399357    0.77861802036268
H           2.41076894466672    1.19013705707315   -0.28492487501938
H           1.77238777386114    0.52718862379399    1.61942961875600
O          -1.31540457995077   -2.51067730733030   -0.73724908934596
H          -0.97855766337183   -1.55907811024313   -2.01567744018404
H          -0.49230788191253   -2.38077943504771   -0.22526071338726
H          -1.97544747059410   -2.10606033207701   -0.15904841946760
N          -0.32235896704001    1.48087723063758   -1.67011914765640
H          -0.43990494440186    0.51226480720022   -2.08427425216210
H          -0.87623018419433    1.54530347173493   -0.75993781691961
H           0.69743723294217    1.64361316769001   -1.45643735988581
H          -0.65883965368812    2.17427112498085   -2.33016459788245
