    26
        -50.44974529  Gyration_radius:  2.55348429705 Dipole_moment: 5.645
 S          -1.87699900946869   -0.43699899920162    1.85017510457240
O          -0.59385824648716    0.22592804437221    1.75326612570830
O          -2.49246294068533   -0.48060878609273    3.12100117257300
O          -2.84492830823613    0.22487453205936    0.83485361547450
O          -1.70924213160313   -1.88376354668695    1.31561022062747
H          -1.00057945612639   -1.94069422451091    0.61164419756232
H          -2.36377573944511    0.56644577606290    0.03000577062896
O           0.20996270695015   -2.17975147081113   -0.39737543168004
H           0.41423688904071   -3.11623868082871   -0.40958387884490
O          -1.65851000450379    1.29788121589524   -1.21368358718180
H          -2.26098464223456    1.96850655254508   -1.53995052729526
O           2.23759099882377    1.14584727834588   -1.15346854396608
H           2.72238484053948    1.66710176766069   -1.79433975108626
O           0.34119686175092   -0.25273279285095   -2.37359255864673
H           0.27246619714808   -1.04969175175850   -1.82387545054786
H          -0.45261246189102    0.26312464047167   -2.16488011529702
H           1.59041678491597    0.60044476323276   -1.67160416639704
O           0.19678453689494    2.31094938269191    0.23956759050927
H           0.00066639205787    1.68965772371422    0.96381724074772
H           1.02371356635343    1.98763671981721   -0.17097372170704
H          -0.93650913364815    1.78448699345836   -0.69382536001032
N           1.94685329571611   -0.86717451167038    0.99423200799210
H           0.95738171776361   -1.71366674489303    0.13298690102283
H           2.38034989181587   -0.17257976650593    0.39359719228502
H           1.24437387868523   -0.39092963715188    1.55608202411020
H           2.65208350587704   -1.24805448736170    1.61031391883775
