    26
        -50.46846777  Gyration_radius:  2.39956998803 Dipole_moment: 5.638
 S          -1.64796889590650   -0.74826022371751    0.19207865790370
O          -1.03652176253814   -0.17354232977195    1.41515160124979
O          -2.25547313906370   -2.02636355136678    0.44652789250145
O          -2.74484214705442    0.26023092675804   -0.26494640334189
O          -0.64018636586580   -0.81121753919411   -0.86040805040420
H           0.03600711349137   -3.12060099276649   -1.01168940614567
H          -2.26262533596354    1.06887009577245   -0.56239244538439
O          -0.01738699974495   -3.34302997063229   -0.07729969823633
H          -0.91644055387170   -3.03404262156941    0.18256953964371
O          -1.37885607331824    2.46482300705105   -0.87010179006230
H          -1.96668650846463    3.20981776111191   -0.73337696930601
O           2.39339762492209    0.70135354146924   -0.08423395830562
H           3.29187887662670    0.82661936552912   -0.39192568083251
O           0.75645275603986    1.01751167323189   -2.07794897328162
H           0.20665386988452    0.26078341791625   -1.77126641275850
H           0.16751048891809    1.77646676252137   -1.99352851216204
H           1.80600505537597    0.83975083323282   -0.88672936643305
O           0.23193500596491    2.12830978147930    1.15710080064518
H          -0.27416336506592    1.32419449599542    1.40623786178646
H           1.09262898488381    1.80756177003808    0.85466721407341
H          -0.74967663417342    2.45488471304710   -0.09495605097684
N           1.21933356050495   -1.38842403343773    1.21768619939226
H           1.70954402674752   -1.67139586488617    2.05984787892588
H           0.88985755074343   -2.22715269243620    0.65393752386677
H           0.30322851997727   -0.87385236090430    1.44521315178639
H           1.78639434695936   -0.72329596448029    0.64978537585308
