    26
        -50.46379203  Gyration_radius:  2.52775253486 Dipole_moment: 3.666
 S          -0.55676511705210    0.19660149377435   -0.47413488822548
O          -1.00171952143521   -0.30330866571474    0.93833679087525
O          -0.96776558702066    1.56643361487045   -0.64746135404882
O           0.93196248354525    0.08233074937947   -0.45530105094841
O          -1.11347105282197   -0.74280131719158   -1.41445371208202
O          -2.31203239862821    2.95544378887586    1.17916676606728
H          -1.86429660508193    2.53050989309389    0.41775341766356
H          -3.24538081691571    2.76403815452589    1.07956306748147
O           1.33702234655598    2.42755685782154    0.77466676529563
H           1.33598977194310    1.59352055849345    0.27069587019798
H           0.77911030182723    3.02315323524869    0.26616183256668
O          -0.00009355203678   -3.10306901946022   -1.62378210034409
H          -0.65019492801825   -2.36182680094095   -1.63672985266401
H           0.71960664823803   -2.75727179723014   -2.19163654190644
O           1.69218348543978   -1.29793680378837   -2.66635286900184
H           1.30970442369421   -0.87762219955236   -3.43843672446685
H           1.49248990442468   -0.70611771245388   -1.91632194964492
O          -0.46190323350816    1.56342089271516    2.53935315911924
H          -0.80169488249396    0.43772385533067    1.63003074102856
H           0.32403279498672    1.95198064339094    2.08891799767753
H          -1.19408514571335    2.17693071138571    2.32560426365138
N           0.87215697618779   -2.25059734607955    0.62796207030728
H           1.07887852842758   -1.26972399040688    0.24756529985085
H           1.67649560761718   -2.67527373738549    1.07851399788563
H           0.08864155505266   -2.12978155842802    1.27108328601334
H           0.53112800278783   -2.79431351027836   -0.27076428234820
