    26
        -50.46564512  Gyration_radius:  2.53845752224 Dipole_moment: 3.619
 S          -1.41263593116254   -0.56033473568223   -1.38339659402648
O          -1.29046226665788    0.78621734410702   -1.91727443183756
O          -0.12600268716830   -1.16860841662697   -1.08701692622299
O          -2.34195798856470   -0.63764237714296   -0.26828493378952
O          -2.02756555145757   -1.45189906498149   -2.54667204196040
H          -2.86522951009052   -1.04609657292058   -2.75061406112324
H          -2.00705824351819    0.89012438670307    0.59166158588821
O           2.68015058065642    1.42269701689500   -0.31821514058634
H           3.46811500226770    0.87731266107222   -0.31947780194367
O           0.76640494187632   -1.20439802137603    2.69274455355436
H           1.53808673660909   -1.77255757413217    2.70158661772959
O          -1.48612954715223    1.71303830176834    0.53755271056207
H          -1.35506257137335    1.78217412546605   -0.42602474143990
O           1.35600584092528    0.56498710746975   -2.40131771863070
H           1.00348541638114   -0.25113076623668   -1.99481694164088
H           0.54686086466882    1.06842995389025   -2.56550378095693
H           2.19533920538412    1.18709430274819   -1.15823395903537
O          -0.87080156105948   -2.45526202095302    1.08523855128833
H           0.08083154106273   -1.70032110222474    2.16362727827732
H          -1.73051640965346   -2.02020319825353    1.00538188195059
H          -0.43661318689236   -2.19434613539197    0.24898455527297
N           0.87158513139291    1.23775736019336    1.63072751931281
H           1.60516994233388    1.29739622499316    0.87413994060897
H          -0.08272855751042    1.44304742687934    1.20079459823434
H           0.85510922932896    0.26933650094484    2.05060569436599
H           1.06561959937626    1.92318725281177    2.35380359617342
