    26
        -50.46365341  Gyration_radius:  2.41757891858 Dipole_moment: 9.115
 S           0.80834654638089    0.71154743687752   -1.66695135296011
O          -0.22301254861688   -0.30771656394801   -1.47734389508587
O           0.63237073230557    1.54175342712299   -2.80801886896545
O           0.96062438968298    1.49431191103398   -0.40936022851461
O           2.16170950892626   -0.08178435230909   -1.80148235686290
H           2.18704168050444   -0.68129056926696   -1.03342578040802
H          -0.38089907800879    2.55529569942414   -0.74835103647388
O          -1.66952548992027   -0.63969853636507    1.81923428158195
H          -2.35457805584867   -0.55601544964695    2.48312445383886
O           2.12914633408830   -1.78708653805137    0.35532293114920
H           2.74380730062533   -2.49998770731847    0.17530481123363
O          -1.24257250537823    2.86714882912156   -1.07113425340630
H          -1.14468283891136    2.85763258534560   -2.02781117817163
O          -0.34824914044276   -2.45345025034811    0.03319489210852
H          -0.41300250636642   -1.78343466792325   -0.68113243317254
H           1.20723860592943   -2.16564708288726    0.22724254758793
H          -0.92874743897699   -2.11939053390733    0.73038917361197
O          -2.43410650496112    0.55325882103335   -0.32860494944698
H          -2.27121350369973    1.50985153459677   -0.43981858564905
H          -1.75091384361714    0.15143154951412   -0.90436342616882
H          -2.01890450704340   -0.15852912479434    0.99985328303342
N           0.87365783131930    0.19242819451414    1.75336111019554
H           0.89485987334919    0.79760556061775    0.82328644599439
H           1.20334575872586    0.74099945633189    2.53953312313938
H          -0.11388279483023   -0.13239566495231    1.89484339992642
H           1.49214219478616   -0.60683797381322    1.56310788188064
