    26
        -50.46607422  Gyration_radius:  2.434898322 Dipole_moment: 6.147
 S          -0.95681702236321   -1.67857136271937   -1.29461731538823
O          -0.23917930315386   -2.12215744689895   -0.09902186523467
O          -2.35388484843990   -1.46217840694403   -1.09337502402388
O          -0.27749195238860   -0.51360134801577   -1.87725414100103
O          -0.78643749685172   -2.84201680832399   -2.35786947614497
H           0.15753765893072   -2.93906622418739   -2.44043649361574
H          -1.20859421085532    0.56486237855741   -1.13452770798794
O           2.09404645063117   -1.09453423937052    0.65332876264696
H           1.30630373507136   -1.61339512295409    0.37633517502873
O          -1.74413065057380    1.19058639274611   -0.58557964440981
H          -2.64307268654103    1.06726815740930   -0.89909485772135
O           0.37735374411587    2.60930403218709    0.30508891843052
H           0.27906164187547    3.54867633194038    0.14485950947462
O           1.98102546848124    0.75735181444065   -1.24398843062553
H           1.20860967415616    0.30549963036772   -1.63690878371752
H           1.61781217131797    1.53711441857236   -0.80471157337961
H           2.27441659667469   -0.48458228210970   -0.10083186759636
O          -1.50942480351822   -0.52615516034529    1.59586581600635
H          -1.88771667854672    0.06713686223407    0.92533840775753
H          -1.18322180298041   -1.29066111410443    1.07757254745422
H          -0.43511284920465    2.18211123190070   -0.03201981078081
N           0.79726928524942    0.57052818637221    2.13540277532672
H           1.44560902526248   -0.13222116126108    1.60631512753462
H           0.79543313475698    1.46555328780399    1.62742019439914
H          -0.18450843819501    0.14354115264679    2.05049265435977
H           1.07511416710412    0.68960683005966    3.10221707321447
