    26
        -50.46949750  Gyration_radius:  2.561944884 Dipole_moment: 5.898
 S          -0.21755068403554   -0.13584937436636    0.49942812648086
O           0.30770085414626   -1.48245837223787    0.69784823072404
O          -1.05532665300964    0.33640194391570    1.57129365175055
O           0.88564472025184    0.79958814483825    0.20515595026559
O          -1.05956458633726   -0.23630559474687   -0.80471125649416
O           0.65367625160335   -2.16077776842553   -1.82628679467121
H           0.42455164948490   -2.09175266641243   -0.87182257406488
H          -0.08594974797162   -1.74064233127758   -2.27390744500286
O           2.84043140788245   -2.10735597890243    1.14445710376832
H           2.88672872587918   -3.06426674623766    1.18632636163762
H           1.88309010754489   -1.88365319667018    1.17344999431636
O          -3.61275574519547    0.98958481631695    1.24736844529475
H          -4.13237188833926    0.18677803556155    1.30382791158997
H          -2.69772768014539    0.73975777636893    1.49469659342876
O          -0.53083659959743    3.00172926632620    0.72853316780662
H          -0.93247457172689    2.75606066212209    1.56703605625429
H           0.11999535526727    2.29818660509914    0.54980122074674
O          -2.33170563580875    1.93578876385605   -0.92563174895587
H          -3.02958058085874    1.73494138088784   -0.27015766405059
H          -1.70942331604487    2.53333182575758   -0.44999692202747
H          -1.58299743128189    0.64422209074732   -0.91583119298681
N           2.63365703753779   -0.60111633317211   -1.03666866293895
H           3.01853251080086   -1.18870531240047   -0.26016091542118
H           3.35369404726085   -0.14202250975291   -1.58274592690301
H           1.99843342537273   -1.22033988958190   -1.60451249819950
H           1.97212903731079    0.09887477238919   -0.54678921234812
