    26
        -50.44437955  Gyration_radius:  2.55188366771 Dipole_moment: 6.718
 S          -2.39868102766642   -0.93261672225623    0.90164651899872
O          -2.35899103513921   -1.86173793135632   -0.19124842035356
O          -3.00121900224791   -1.33436316542329    2.11670362097554
O          -0.91588541355866   -0.47131244620437    1.16961737299644
O          -3.05612770375264    0.39328403913564    0.43368449709680
H          -2.56818406676620    0.71521781439244   -0.36590305543739
H          -0.34561787527831   -1.05642056666181    0.55051408109130
O           0.25408923589659   -1.98685613794297   -0.48243455506102
H          -0.63058889921109   -2.34201459395989   -0.67135320339335
O          -1.55807270342322    1.47267141047079   -1.43076418911328
H          -2.02217742748991    2.20879733353316   -1.83319646423233
O           2.32821990458150    1.14455165859354   -0.29647275483586
H           3.21521203010751    1.49783549419542   -0.36972018814192
O           0.68803949636158   -0.04303656586848   -2.19756257709417
H           0.46594190919005   -1.36935470667366   -1.23351921967732
H          -0.14810508258397    0.44250615296032   -2.14032864314952
H           1.33294433823038    0.46109283290181   -1.67321235534165
O          -0.04838469908240    2.13261922267637    0.57474207696227
H          -0.33415038200344    1.37457396975535    1.10381781171685
H           0.86091934431251    1.92514037781693    0.28730564156487
H          -0.98098027957686    1.85462916958132   -0.70455982911758
N           2.27739739086236   -0.92205688679053    1.38509225697933
H           3.10328341809098   -1.30494323513252    1.82807438290618
H           1.87398963979237   -1.64367417989917    0.79504970699739
H           1.59719498302972   -0.72329611669757    2.10953376930322
H           2.36993389732054    0.36876379885004    0.33449374736278
