    26
        -50.44974527  Gyration_radius:  2.55337663535 Dipole_moment: 5.641
 S          -0.79626986078171   -0.87231357346443   -2.39531961558722
O          -1.30465572521297   -0.03557044735085   -1.32914492194926
O          -1.65497492003989   -1.12732452781658   -3.48765850449902
O           0.52470785170193   -0.24820568308338   -2.91635758471276
O          -0.34994480091167   -2.22165290944303   -1.77303014560824
H          -0.03623637376182   -2.11123909634252   -0.82942266663332
H           1.01534578119762    0.23772977543176   -2.19594707923734
O           1.78523874204784    1.18284353576388   -1.15036593162550
H           2.32560243083260    1.79638921060188   -1.65105270011600
O           0.33099804012316   -2.08114362886960    0.72143622510678
H           0.27996230745243   -2.97547260558786    1.06269491520488
O          -0.01009764148959    1.54773221523156    2.29219162842076
H           0.32847199656981    2.19151923051983    2.91539655499140
O           1.97451654128762    0.04045635923007    1.38084295293036
H           1.54038860606789   -0.81104838852522    1.21207854298255
H           2.12678062264032    0.42115223349913    0.50240269028094
H           0.76015237051968    0.97650279992399    2.03696834891999
O          -0.37621519231007    2.28213224879301   -0.31332812150929
H          -0.91562389304875    1.56966223825908   -0.70088272039803
H          -0.36955676897930    2.11574045660237    0.65062666255532
H           0.98180454614204    1.70614955892854   -0.82026958194487
N          -1.73286320944711   -0.69668418406410    1.42865403009087
H          -2.58798626589202   -1.04025796327472    1.84421987250183
H          -1.41322112027790    0.10739010150485    1.96006510203828
H          -0.49273469550293   -1.57579723607908    1.07239806410168
H          -1.93358935893464   -0.37868972038869    0.48280398370476
