    26
        -50.46607504  Gyration_radius:  2.43501322564 Dipole_moment: 6.136
 S          -1.26545237605835   -1.67427765283800   -1.00256434364482
O          -0.82285540992073   -1.94196593249401    0.36631033125223
O          -2.55502404071660   -1.06776284826556   -1.09438794334223
O          -0.22888518581148   -0.92065245335526   -1.72053893810707
O          -1.33379660352434   -3.08754024637979   -1.71753984533071
H          -0.45995500937363   -3.44700472970357   -1.59694887444843
H          -0.88092709453501    0.51703986443776   -1.42101876597663
O           1.62294945415651   -1.36073801685846    1.23049596176899
H           0.75064208324465   -1.72190111928413    0.95629730069384
O          -1.26598573599250    1.38237024678762   -1.13353210245114
H          -2.12730954159568    1.40804023069012   -1.55672090477661
O           1.07332765713664    2.41551138862615   -0.26032624422483
H           1.26016639117907    3.27109847142103   -0.64868759550239
O           2.22628322285941   -0.12699120121983   -1.04042951298268
H           2.05839461865947    0.80777706666667   -0.86448581333594
H           2.04119659663561   -1.04406778683076    0.39497871524048
H           1.39938600986089   -0.46221621742789   -1.43901612074889
O          -1.74301308593758    0.32121118929513    1.39880155029634
H          -1.87174955565787    0.78360902126540    0.55369047098894
H          -1.59937026604319   -0.61198434791969    1.13808574845323
H           0.20977284372784    2.12873325999905   -0.61861841184330
N           0.71690616228903    0.91345662707212    2.04142263486053
H           1.01867675040281    1.60757705741681    1.34399916430499
H           1.18654125461390   -0.04533558518022    1.80839140004110
H           0.92279535133738    1.21767711944134    2.98545571740178
H          -0.33271450092859    0.73833658464279    1.89688640142097
