    26
        -50.45494025  Gyration_radius:  2.7441835839 Dipole_moment: 4.798
 S           0.11251979282357   -2.81441584503828   -0.68095868553176
O           1.16712858460026   -2.01364847751078   -1.27800895890147
O           0.11292894323410   -2.76718999364107    0.77461546873688
O          -1.19356844688030   -2.49744240101315   -1.24091920907869
O           0.42791616655513   -4.32112536579659   -1.07074622721799
H           0.63388431065096   -4.24948668176183   -1.99791765354161
H          -1.89147964244555   -1.15081731872319   -0.83445843975726
O          -2.30705305639993   -0.31259384827508   -0.48168448722882
H          -3.24790967579212   -0.48895591681835   -0.44364631230395
O          -0.49361291500726    2.60911296268846    1.36765976062330
H          -0.74742065637166    3.49615525763716    1.62384228533748
O           1.49513302214343    0.48435360640581   -0.60445477467756
H           1.50484205296079   -0.43947240037896   -0.95206431403766
O           2.19831009892413    2.39802611454522    1.16862275163974
H           2.73034919171648    3.08278566757154    0.76062478734592
H           0.48695508383791    2.58660730919885    1.38012346962122
H           2.17422459896592    1.65958026232288    0.53148154084181
O          -0.70560567847874    1.81248900469123   -1.30566881623895
H          -1.36916234974513    1.10768897546155   -1.29350471113200
H          -0.75435474197507    2.21836422239947   -0.42315570207173
H           0.81451131002531    0.97216964354760   -1.12341266856429
N          -0.23495740036702   -0.26199812592631    1.26013293811887
H          -0.08225567914444   -1.31909679669746    1.24016759449392
H          -1.14717188079547   -0.08419958491444    0.79651533471887
H          -0.20846516901477    0.14833952384468    2.18768474160105
H           0.52431414597482    0.14477021622356    0.63913026722410
