    26
        -50.45494019  Gyration_radius:  2.7442160535 Dipole_moment: 4.802
 S           1.55410551487239   -2.21246035591882   -1.04274143736123
O           1.03296036218170   -2.42741634839483    0.29591786694157
O           0.51150648552405   -1.97116996316824   -2.03048761017075
O           2.58295661035496   -1.18244902377857   -1.06632660693906
O           2.25432613949579   -3.57286625921382   -1.46793353855323
H           2.76052982086305   -3.78920267664326   -0.69092858289131
H           2.15893042048268    0.32169835108474   -0.91355321312778
O          -0.64620331672606   -0.74348132785217    1.36665279025330
H          -0.03276326017115   -1.46886180170050    1.09860393244439
O          -1.73055420647565    2.41849386255276    0.27706479251744
H          -2.12175212102205    3.26912142544032    0.47777934602257
O           1.81391134079135    1.25956712370788   -0.87953392114992
H           2.40839560138058    1.77174293293053   -1.42909666853921
O          -3.07908507859604    0.42270994940061    1.51344538895149
H          -2.31795001018429   -0.18717955751877    1.53560929469005
H          -3.38125516857881    0.50227262569608    2.41940160066134
H          -2.30364441644507    1.74313516087056    0.69856749927781
O           0.59458318258651    1.60265031210669    1.60168098136786
H           1.26003088066447    1.54090742199700    0.90130224240920
H          -0.16147156976700    2.05552721096215    1.19032188953877
H          -0.08149583289097   -0.00514579210389    1.69298565034716
N          -0.64205769354663    0.14806012111307   -1.12985378747742
H          -0.28894115125872   -0.72373691433893   -1.63615146220812
H          -0.81453144437053   -0.15768914331498   -0.12770118667295
H           0.14510643164607    0.82553553018571   -1.11932879010167
H          -1.47563753083373    0.56023713594068   -1.53569647023421
