    26
        -50.46457858  Gyration_radius:  2.46274456206 Dipole_moment: 4.838
 S           0.30020027034062    1.59902962491594    0.71842819534869
O          -0.17569788825565    0.18944586683666    1.26252876697194
O           1.74266834862326    1.60911042996891    0.73807733827850
O          -0.21633411349697    1.66221692627407   -0.66804385423359
O          -0.34691734188000    2.55294510725940    1.58115134599377
O           1.62804950345940   -2.87743768746590    0.11790601156089
H           2.12165650983796   -2.03390185464434    0.10125160897628
H           2.08248069009219   -3.46725225129220   -0.48561824153703
O          -2.61314741808171    1.37669719979714    2.01061636163433
H          -2.36413264549964    0.73325601406703    2.67850048971460
H          -1.80420005800836    1.94729250471179    1.90429483460341
O           0.96337485713638   -0.14938382341228   -2.23155679246434
H           0.61726189199461    0.67569853406027   -1.84009128577050
H           1.81354192594408   -0.29713639895027   -1.78985299708616
O           2.88711640346027   -0.47591896180981   -0.25177600193924
H           2.44836683865853    0.31443781325914    0.16765992926165
H           3.82559383539924   -0.34891455011471   -0.10432197593426
O          -0.58053947053499   -1.56069781455095   -0.64034477071294
H          -0.07748461646408   -1.12687850173775   -1.37934787168908
H           0.02826012166513   -2.25272863473225   -0.31353842797492
H          -0.22430051089954   -0.49880341417570    0.54718765848100
N          -2.45020581745278    0.46902921804986   -0.44218340732806
H          -3.21695900246005    0.66502305092726   -1.07666433496825
H          -1.56709607508882    1.06196996870641   -0.66792598098593
H          -2.67597034551166    0.74406544065285    0.56590859348075
H          -2.14558589292080   -0.51116378659422   -0.50224520166613
