    26
        -50.45494020  Gyration_radius:  2.74422435924 Dipole_moment: 4.800
 S          -2.51006191389448   -0.69928496407172    1.26818333303505
O          -1.33238503936561   -1.01651959883636    2.05705626358872
O          -2.61908179390706    0.71714743059642    0.94762676528672
O          -2.61384971294584   -1.54067984896157    0.08444178962573
O          -3.76091500640360   -1.03839524389512    2.18576138950115
H          -3.52647858475917   -1.89188988182387    2.53755036643250
H          -1.64497188916767   -1.27833120501456   -1.12297032480687
O          -1.04593844723472   -1.01347229863391   -1.87851804865977
H          -1.54230209295698   -1.19902992025011   -2.67662048176980
O           2.11270198859622    1.27349918850808   -1.68374958033001
H           2.82267277510214    1.48456286664038   -2.29060579699777
O           1.03834929096950   -0.22907719503746    1.30736188107176
H           0.21803867011339   -0.58577616277398    1.72459022406799
O           2.87614107549809    1.70448948322922    0.87807826925686
H           2.43254651170958    1.51402225997300   -0.78822509971906
H           2.24839168024018    1.06170793673462    1.25830127018679
H           3.74284766646145    1.44916815521491    1.19747463233862
O           1.57921376557620   -1.39321824611336   -1.02738782144359
H           1.84695505669333   -0.53742039206749   -1.40402667752039
H           1.30944773667307   -0.88085448861598    0.62014956379766
H           0.68978067789753   -1.55192139148642   -1.37514529000595
N          -0.45817270836233    1.16369857462614   -0.38050131612591
H          -0.16464976965454    2.08089153562964   -0.69994190601752
H          -0.56245102499370    0.50430342459527   -1.17616018768337
H           0.25122616303874    0.74618142140946    0.29023052564739
H          -1.38705507491860    1.15619855041719    0.14704625724396
