    26
        -50.45494023  Gyration_radius:  2.74419375015 Dipole_moment: 4.799
 S          -0.93401216444555    1.69154165506163   -2.15952127208902
O          -1.96252571483027    0.84896737175870   -1.57459773729864
O          -0.31911031535950    2.59518390558243   -1.19712850764966
O           0.05450114412158    0.91296739922504   -2.89208620689400
O          -1.67066822981888    2.61584809950756   -3.21999077166796
H          -2.22336101120242    1.99157605927679   -3.68037805988453
H           1.10679162492303    0.06732955367258   -2.09004363512203
O           1.78663090233989   -0.39196699965899   -1.51852367036886
H           2.60353282801718   -0.36317283801015   -2.01812647728099
O          -1.48473269154959   -0.54892012585858    0.57447637167115
H          -1.81872843587973   -0.07748726634244   -0.22591614058569
O           1.51804575350347   -1.14602326883791    2.30297080617768
H           2.02374463046312   -1.68200425941921    2.91442186207398
O           0.43711381738230   -2.30139527597769   -0.00415996567764
H          -1.00124403884530   -1.34373745114007    0.25045264608836
H           0.89356902278207   -1.85499991713616   -0.73186472888844
H           0.92728255234345   -2.04354643971531    0.79534397390011
O          -0.99644284570165   -0.74780195481352    3.22450239575102
H          -1.50465114410185   -1.45311751357380    3.62781435182030
H           0.64811566090080   -0.98696378764950    2.72734811586794
H          -1.38482553472001   -0.60684350728359    2.34070330160468
N           0.68204164191727    0.97771795560489    0.53907485995991
H           1.12516126336266    1.27105200251057    1.40338922464386
H          -0.17123354078228    0.37544049409188    0.73087334886580
H           0.33147382952362    1.78045036619029   -0.07233278925402
H           1.33353100563529    0.41990576294332   -0.04670128579700
