    26
        -50.45499929  Gyration_radius:  2.50002239343 Dipole_moment: 4.589
 S          -0.26595841080333   -1.07075901163055   -0.04863862109648
O          -0.83950242387503   -0.34096249677371   -1.17968386503268
O          -1.16423251954702   -2.28227967014441    0.26499920322877
O           1.06085398253712   -1.58136575359216   -0.37418890349642
O          -0.20875656293316   -0.21208366087048    1.13565432238821
O           3.18823942238850   -0.48429445896546    0.53454590969824
H           3.90112904653397   -1.09766536621253    0.34692016769189
H           2.34050984283043   -0.97140997012010    0.32684573060604
O           0.71005615938433    2.12073591631661    0.62218545165604
H           0.29124670890064    1.22733041951537    0.80125965615709
H           1.07638672224063    2.40771935284053    1.46199136612241
O           1.26569404893251   -0.01663643242958   -2.59653759631552
H           0.36071515087971   -0.04132396200411   -2.17544547596454
H           1.60714881020754   -0.89889591158958   -2.40695169622956
O           2.52153143048510    1.42667108539402   -0.98472204338653
H           2.01033223388337    0.88687970686371   -1.74866411085386
H           1.77379983297795    1.82913460761738   -0.38173983387501
H           2.93842072241131    0.70141529982261   -0.38402889800994
O          -3.30793327559432   -1.07259164992579   -0.39878968726649
H          -2.09463323697408   -1.95809863108085    0.04881780664240
H          -3.39302210632063   -0.48288714722257    0.39083688803143
H          -2.72212241554908   -0.59761038093559   -1.00745315816210
N          -2.91158832778572    0.50043770504259    1.74527424793450
H          -1.91847495526401    0.27868990737820    1.66041988514221
H          -3.21108011576322    0.22426875779712    2.67173478277877
H          -3.00875977418589    1.50558175490551    1.67535847161301
