    26
        -50.46457841  Gyration_radius:  2.46329865969 Dipole_moment: 4.837
 S           0.49226829606679   -1.02883827395064   -1.36432619143355
O           0.60131452122108   -2.42338610056674   -1.70538317022470
O          -0.76846251826698   -0.95457021699332   -0.40819075567987
O           1.62625205827839   -0.56945020129210   -0.52986972199221
O           0.25747814281614   -0.12740128115809   -2.46590381086656
O           1.37673532742112    2.00350835578463    0.12917479953695
H           0.82469992035614    2.35829417470133   -0.58433983282167
H           1.69443324642508    1.14217551972008   -0.20404394720613
O          -2.25617701767035    2.40047574525381    0.32732999091119
H          -2.27608118899958    3.33859044126014    0.52269142737315
H          -1.75880375536921    2.30478544088863   -0.50869918107533
O          -0.58234095661670    2.22372056643383   -1.83027770255372
H          -0.29505367218941    1.30345159755256   -2.08262341612754
H          -0.75195548135228    2.66986818611996   -2.66141846112097
O          -0.13572342939559   -3.53575296861255    0.51343181744913
H          -1.09069697584294   -3.45587697566145    0.45254773906698
H           0.19374405516071   -3.24077085546329   -0.37863458956306
O          -0.48549033877568    0.78389395358946    1.52645715492877
H          -1.27911366599743    1.32319049139207    1.33740022060133
H          -0.69914224044539   -0.21980010213436    0.25755044282316
H           0.26468465450114    1.32400209524010    1.16183204502264
N           1.01719566260212   -1.53008399801291    1.74402590074564
H           0.35892834380505   -0.81506343619172    2.07940393043153
H           0.50257556228241   -2.40668674822164    1.41292071610178
H           1.43803326772712   -1.12938144156201    0.82482269522343
H           1.73069816225111   -1.73889395806677    2.43412192044558
