    26
        -50.46457869  Gyration_radius:  2.46275455795 Dipole_moment: 4.836
 S          -0.13349070916366    0.13547372137326    1.76814788920416
O           0.30569987292500   -1.00016141167206    0.75488156075374
O          -1.56413523248399    0.04514048099971    1.93017371062967
O           0.64993773762564   -0.11588459384964    2.94962500954085
O           0.25074565545196    1.40239622350877    1.10460755102621
O          -1.78187119401959   -1.59045729681080   -2.28868604573926
H          -2.32554006064170   -1.37326770327462   -3.04754880793411
H          -2.22241514224410   -1.19168145556639   -1.51247810941891
O           2.87186088773860   -0.93988804490362    1.90746003956461
H           2.65036381383512   -1.84950150439128    1.69388795613335
H           2.09187954478327   -0.61321991295751    2.43318720370259
O          -2.92203391062635   -0.16715290403819   -0.24891696330857
H          -2.39808915598294   -0.12474604025878    0.59769915608126
H          -3.83256702472550   -0.28567077707173    0.02581268205445
O          -1.17791960165761    1.81953425433419   -1.10917545360832
H          -1.99027231216822    1.31793790254719   -0.94148347074114
H          -0.74706113301309    1.89860758076482   -0.23625008696024
O           0.42216082612618   -0.17254594027280   -1.72493322909880
H          -0.19398245176766   -0.82704500454296   -2.11014685969614
H          -0.12170007365596    0.65599613465236   -1.65287102910174
H           0.24560763949431   -0.70920961408296   -0.19349265896265
N           2.42067579807475    0.74635524034484   -0.04683206500748
H           2.75808885098616    0.01418245778137    0.65520310364895
H           3.13346846636502    1.43679938852998   -0.25681779632847
H           2.05364128970599    0.30435082517158   -0.89950052276750
H           1.55694759904557    1.18365801362632    0.44844726634152
