    26
        -50.46457869  Gyration_radius:  2.46272561966 Dipole_moment: 4.837
 S          -1.62647675532439   -0.68495741500050   -0.21971394768729
O          -0.78498669739571   -0.75739755533033   -1.43608687816188
O          -1.51147995427835   -1.88915611471075    0.56630576234443
O          -1.00770342004411    0.50087256732483    0.62909649657040
O          -2.96777175114195   -0.25271727271048   -0.51464481102940
O           0.79031923510330   -2.29906929137110    1.64806934690328
H           0.68623400727020   -3.08639114916008    2.18465301305553
H          -0.11254720379671   -2.12432402689961    1.26404472850877
O           2.18045490403196   -0.09631453665212    2.48609510938845
H           3.06291837193978   -0.43391712127312    2.64712413904956
H           1.62022836628277   -0.87387102298961    2.29328750881328
O           1.70754794779052   -1.51042093669482   -0.85505297064409
H           0.80692214870702   -1.43777094843773   -1.22572881829087
H           1.59786752987973   -2.00682222721433   -0.02970908866647
O          -2.61172981447562    2.29153901975852   -0.83300825316235
H          -2.57008281828329    2.58877067587836    0.07914510801440
H          -2.88034541091471    1.33483902829485   -0.76863236464487
O           1.51878632402449    0.93083005960919    0.10025449156086
H          -0.02605943701581    0.58967170359964    0.50168350174239
H           1.86195309869653    0.82866860534556    1.01034422539403
H           1.74812062974801    0.07057210759327   -0.34109234608088
N          -0.27595987260774    1.69725647925006   -1.86090501164866
H          -0.47367017164186    0.62800845669072   -1.84636618435543
H          -0.06361421715902    2.03591583993722   -2.79317277979495
H          -1.17930401720841    2.11625660761145   -1.47194370229745
H           0.51037897773621    1.83992846764324   -1.21404628492775
