    26
        -50.44974492  Gyration_radius:  2.55348282034 Dipole_moment: 5.643
 S          -2.26507191774412   -1.35526126219839    0.40922702639446
O          -1.40626276258626   -0.44713509392768    1.13936909194568
O          -3.36741814302849   -1.90571157961917    1.10035886980732
O          -2.76961704366879   -0.62937598219998   -0.86535669881781
O          -1.38397130089769   -2.50686185195598   -0.14263057244075
H          -0.45325027027625   -2.19931417818383   -0.34227596976639
H          -2.10796815062252    0.03806153192531   -1.20135156586136
O           1.09244354624789   -1.86220382221151   -0.54234276399822
H           1.58020712452099   -2.68641284480055   -0.58306331831454
O          -1.18738090451282    1.24945229344257   -1.71444226011940
H          -1.74348576238200    1.85062988457409   -2.21284897240795
O           1.98131236492366    1.87162307025825    0.47030705077873
H           2.50905842661841    2.65124129672960    0.29381847646314
O           1.50998341405336    0.56718569596917   -1.79178261964091
H           1.45448497879189   -0.35742863131837   -1.50173048538407
H           0.59484259203588    0.82385773066110   -1.98256740643406
H           1.89260440741936    1.39425817121797   -0.39515083953385
O          -0.73291517017861    2.11778058580716    0.65632622362790
H          -1.03462943584036    1.27786036244549    1.04667961488843
H           0.24258018828343    2.10903964241768    0.72928713875733
H          -1.01969069154348    1.68688676358300   -0.81512658780743
N           1.38087640175838   -0.72246605217906    1.75859045555929
H           1.77863597704129   -1.12542071977503    2.59607214101549
H           1.28356071132777   -1.44246038535123    0.37647060661615
H           0.38126645177114   -0.59344443987544    1.90070610824154
H           1.78980493849080    0.19561981456501    1.61345723642611
