    26
        -50.45468206  Gyration_radius:  2.69780827874 Dipole_moment: 5.727
 S          -1.57051332745614   -1.96587378844789    1.15945370406159
O          -1.39286326931864   -0.92167941491611    2.17741346044336
O          -2.33297671926248   -1.52297436018017    0.02005433414470
O          -0.28470935784669   -2.55625342710670    0.81295912139563
O          -2.41994639064909   -3.10746085046941    1.86525257510948
H          -1.90673724951749   -3.31439233097930    2.64085513759720
H           1.17540606549463   -1.97940785595450    0.43068080565747
O           2.05018125736766   -1.52136926193052    0.32580931654354
H           2.71451585270008   -2.17671547867845    0.54067933392901
O          -0.82759342057761    0.00211687982259   -1.45226809211744
H          -1.47365883385119   -0.63361579476803   -1.06352486439726
O           1.29250097947622    2.67114990890446   -0.53595274146768
H           1.80396880528368    3.38900450042974   -0.91050446138011
O           1.89975802224551    0.36538971725271   -1.73931253564746
H           1.58798578919574    1.85357841353334   -1.01232756497556
H           2.14597496604089   -0.34519809474503   -1.12608824742973
H           1.01291956012511    0.12810949626271   -2.04670859099412
O          -1.37338879942128    2.65915933537908   -1.25071928792678
H          -0.43430969980160    2.78260279662104   -1.01314172815875
H          -1.29996775005917    0.83791363314109   -1.61475549291233
H          -1.89746946833709    3.03837126655008   -0.54455825293189
N           0.31689285023429    0.49274189564449    0.89082265153948
H           1.19166080659597   -0.04932493619713    0.92287022588485
H          -0.09161586750943    0.35639126006666   -0.08666561301588
H          -0.38563238426307    0.03639150187529    1.55709805514595
H           0.49961757337913    1.48134497892907    1.05257876181280
