    26
        -50.45739733  Gyration_radius:  2.57190266643 Dipole_moment: 4.506
 S           1.31993355265623    1.58272646209737    1.60343061764399
O           0.25271906630185    1.76474692130950    2.55734501163654
O           2.50568198830780    2.34558697839572    1.81910562124868
O           1.76758740929977    0.02107748936239    1.75250022012771
O           0.82900708238401    1.61191045646006    0.21348829269191
H          -0.78477396272434    1.56541627303376   -0.10524142260789
H           2.17166590445616    0.04744499073558    2.61295572713639
O          -0.38882641053839   -2.06070990515706    0.52815691009809
H          -0.20986665661849   -2.80025965521446    1.10906272523607
O          -1.74613615496316    1.45307999531335   -0.30018224146017
H          -2.11862680195673    2.33475868364397   -0.32833558787878
O           0.21390721756772   -0.69980137215271   -3.26564540196106
H           0.10064404813959    0.11712217895074   -3.75362377664259
O          -1.41760031826747   -0.14705975193412    1.93151275246893
H          -1.91239094510588    0.34118074428864    1.25665718271627
H          -0.76239960551007   -1.33484163760453    1.11662965124674
H          -0.78883136997943    0.52121311814339    2.28893324772287
O          -1.85130483711465   -0.95218262019425   -1.65508049705614
H          -1.94098964995235   -0.07626903270370   -1.24263615853119
H          -0.64849265115208   -0.86823051313935   -2.80257997982908
H          -1.54502042114578   -1.53865878725175   -0.95049401516869
N           1.41326210388727   -0.65621820032817   -0.89090901785227
H           1.08493916097883   -0.67806212079954   -1.89249563591899
H           1.24909829252744    0.31296342337959   -0.48076956526591
H           0.81474478404775   -1.30347311675953   -0.32154907543903
H           2.39206920448849   -0.90346101187025   -0.80023555436221
