    26
        -50.45391074  Gyration_radius:  2.52584012388 Dipole_moment: 5.300
 S           0.90388739140927   -2.19385488653295    0.62467274392309
O          -0.39131268462859   -2.66196797322048    1.06556813041644
O           0.90040145986538   -1.72666873623942   -0.74999697488455
O           1.44579076454636   -1.18864858816118    1.54165158352809
O           1.90006853877242   -3.43188643549794    0.66556625209338
H           1.75136570339459   -3.85207542112658    1.50886056153169
H           0.06963843312571   -0.45129334269800    1.97274439531496
O           1.88494903451829    0.95336141041454   -0.07873806393868
H           1.90367249970116    0.17071356788134    0.49765155465834
O          -0.86644886852293   -0.13166105260056    2.05936357949669
H          -1.31060713823555   -0.84415024133384    2.52638300126183
O          -1.56245595817467    2.14067620125327   -1.25551856463915
H          -2.27656798300798    2.77800350300029   -1.25946218717696
O           0.56656608762719    0.91804614944336   -2.57925359225231
H          -0.12138956951584    1.54001801464060   -2.30350579144781
H           1.21452253981659    1.41913803303157   -3.07603404408099
H           1.58244699137189    0.63472965892912   -0.94459295771078
O          -0.13017915932846    2.36567263372447    0.87843914563483
H           0.71998751263013    1.96680297057285    0.55862237409445
H          -1.01655997546725    2.32739383276166   -0.42893954820751
H          -0.45145114354130    1.75056450973707    1.54754179029717
N          -1.36685288204662   -0.48867209632454   -0.57170119045378
H          -2.11123572066536   -1.14369924807560   -0.78838109026612
H          -1.29059389570579   -0.35516135057939    0.47179678954446
H          -0.43602988338447   -0.93131693669341   -0.85605983715516
H          -1.51161208455790    0.43593585368365   -1.02667803956886
