    26
        -50.46457871  Gyration_radius:  2.46271095907 Dipole_moment: 4.836
 S          -0.44644048878217    0.74608440305048    1.55131022387192
O          -1.06784017338477   -0.37308473737928    0.61812297803357
O          -0.94570695911211    2.02029809212106    1.09494626308266
O          -0.83521479044218    0.35905379137502    2.88246814737484
O           1.01617202164354    0.63959824641211    1.34555764318753
O           1.70322280837876    1.31220895266940   -1.14300068678910
H           0.98279867195192    1.90049033330283   -1.41599114585656
H           1.62183044027485    1.24975845658546   -0.17175906320971
O          -0.70458629814556   -2.22062897751803    2.70908635480694
H          -1.53118852904916   -2.41885901394022    2.26239722858131
H          -0.76483038323444   -1.24925872707021    2.91958565396348
O          -0.82980494547966    2.41697504616237   -1.44792644759556
H          -0.91263306215025    2.25193712521086   -0.46859953732378
H          -1.25707860758152    3.26196101319945   -1.59657184693976
O          -1.22122957647166    0.24447211085077   -3.06449234485270
H          -0.92965298438601    0.54822662017242   -3.92551914137570
H          -1.20524762251741    1.02634433595338   -2.47791831073768
O           0.47505847456395   -0.99707670472046   -1.40133414802965
H           1.07332702160915   -0.20368315071118   -1.40868420018800
H          -0.52815760249121   -0.52938244540279   -0.20158106687640
H          -0.16674912232232   -0.81604652017866   -2.11671992603964
N           1.32074749182266   -1.87109442373665    1.08370497145593
H           1.34990151389909   -0.79727389465525    1.25301826059469
H           2.20091505777106   -2.32011589608916    1.31302405726614
H           0.52207481992573   -2.19491538058356    1.71621934891488
H           1.08031278376456   -1.98598864511741    0.09065672465049
