    26
        -50.45391072  Gyration_radius:  2.52590453253 Dipole_moment: 5.306
 S          -0.89201947675346   -0.45187314978636   -2.24069751457045
O          -0.33335730192961   -1.78559525590389   -2.25270400284376
O          -1.75960986382347   -0.21032443681168   -1.10180799724603
O           0.15657323942062    0.56428467447019   -2.35331849990782
O          -1.80905061853835   -0.30551533496391   -3.53084457948138
H          -1.29352162049070   -0.65740894404464   -4.25209752380333
H           1.33190476176230   -0.17101387679440   -1.51573451711005
O           0.58344896078888   -0.13273643554233    2.87113382583678
H           1.13749247908744   -0.37659891728136    3.61259633153564
O           1.87571241002990   -0.77386796981064   -0.94413754315516
H           2.04650443250074   -1.53304775176694   -1.50762040583895
O          -0.22746996913623    2.09720610099247   -0.13763786535718
H          -0.16004769265849    1.68649687174217   -1.01620415059566
O           1.91874077011025    1.20723308532839    1.11678906123762
H           2.25835978749155    0.60656505415333    0.44364844970686
H           1.17805356892364    1.69232287359621    0.66933797795508
H           1.15295052373396    0.43385578170757    2.26232614911169
O          -1.80091310163444    0.95327451481136    1.91416175700035
H          -2.16928746907002    1.76534495793218    2.26435125220182
H          -0.97610259262906    1.66027122833702    0.29976393265475
H          -1.03977590422145    0.72635202778945    2.46675530874512
N          -0.23785310480652   -1.41448777489267    0.61246518607542
H          -0.09503142323098   -1.02923440781200    1.56855223548212
H           0.63763085486364   -1.26663329120331    0.04311108611039
H          -0.48411974788927   -2.39897342485639    0.62838336722949
H          -0.99921189180179   -0.88589620942618    0.07942865903791
