    26
        -50.45730945  Gyration_radius:  2.44934231634 Dipole_moment: 7.988
 S          -1.97603886487599   -1.31493796108870   -0.47776966996472
O          -1.76249339329968   -0.43286308491902    0.71097562612525
O          -3.33966964868027   -1.66268477257346   -0.66486910066075
O          -1.28902589812661   -0.74702696401618   -1.62981492628159
O          -1.14524584739014   -2.62026417786672   -0.11581609499131
H          -0.25211343691920   -2.38689441820369   -0.42084660181469
H          -0.81738310050906    0.71227032828339   -1.89754975936318
O           1.42566958752773   -1.86090489909708   -0.53804443855341
H           1.85897084484754   -2.40071929358847   -1.19989990794581
O          -0.43993907372142    1.62723420288701   -2.03834719428413
H          -0.68918222425147    1.87754834466777   -2.92850370222456
O           1.28030033891597    1.67369515410371    1.55024800337295
H           1.54376157945996    2.38491278987458    2.13432787157093
O           1.88782962248508    0.66467875589048   -1.00901730925235
H           1.58428145471207   -0.91006910047849   -0.80987661354296
H           1.13402925182758    1.04851705855016   -1.49693320097457
H           1.87796976932437    1.09760788173013   -0.14278930604899
O          -1.05053913067239    2.13896391066285    0.56430950750749
H          -1.48741198676139    1.26857514507410    0.67146460355261
H           0.37000058575827    1.92941334992917    1.18566243653165
H          -0.89996468122278    2.21430196850837   -0.39392817872915
N           0.46173364601053   -0.87465779429405    1.81824815885992
H           0.38700408224431   -1.33089029767718    2.72001941032098
H           0.98923835489024   -1.45001082957775    1.14831788403050
H          -0.55105453631006   -0.71568806406405    1.37109990867113
H           0.89927270473586    0.06989276728162    1.88933256408823
