    26
        -50.46457866  Gyration_radius:  2.46296342311 Dipole_moment: 4.836
 S           0.68658610723876   -0.80428952056904    1.43002636414401
O           0.22283754091268   -1.74713900336053    0.38654060763666
O           0.96574822046670    0.54925330741246    0.65569742519905
O          -0.35164470920720   -0.54616399273500    2.39785190770474
O           1.96813703046318   -1.18002152006252    1.96795993723299
O          -1.94754159938593    2.64629040707765   -0.39325726574414
H          -2.82337527040819    2.84207523736138   -0.72974226402650
H          -2.07439519087192    2.05212868560210    0.37258160561404
O          -2.12873807208245   -1.00080083495014   -0.62909377884388
H          -2.51916306747704   -0.47822646603891    0.08794628382459
H          -1.39600334947599   -1.49269301460340   -0.21085644803557
O          -2.40182154654698    0.74273218777282    1.51905695043103
H          -2.95824312429213    0.89426890246460    2.28461794693517
H          -1.59375484832562    0.27855397052873    1.87220617640718
O           3.55086939328403   -0.39728284874793    0.07466505116563
H           3.60051594365026    0.54520400769075    0.25175921669397
H           3.05770027248654   -0.76945405865755    0.85553559761655
O          -0.42144588097297    0.77174149295150   -1.55208489681236
H           0.36032815454588    0.67534073467009   -0.12229098433633
H          -1.12149115329650    0.08731952497560   -1.38219592788735
H          -0.86344879577182    1.61906895867457   -1.34455974829611
N           1.65043358384013   -1.06121014525682   -1.60252745342296
H           1.87309545069987   -1.71992765324607   -2.34108610587687
H           1.10930768608555   -0.26100672745236   -1.95458414882546
H           1.03616590972938   -1.50768303591627   -0.82412680614359
H           2.51934132467875   -0.73807858559137   -1.07003923241537
