    26
        -50.44955281  Gyration_radius:  2.67199277624 Dipole_moment: 6.806
 S          -1.39437009198929   -2.32504739824176   -1.26518799464641
O          -1.85109263924175   -2.30928379331333    0.12972652209753
O          -2.20476395601896   -3.07880924096685   -2.16536082062394
O          -1.61665677043172   -0.76507743185568   -1.73920599101360
O           0.03902560001498   -2.51834249765421   -1.34249446923707
H           1.20657560126600   -1.43672499367223   -0.95251036278657
H          -2.26495134757593   -0.90955780879169   -2.42087317847339
O           1.67964244000162   -0.70823378463402   -0.48015273300099
H           1.49585832147483    0.09448066535732   -0.99112990379725
O           1.32110476175175    1.98899926459522   -1.31931363944333
H           1.80995761872993    2.58454358888245   -1.88744736460364
O          -0.51930863560655    1.38637234289281    2.03691741220374
H          -1.06975101261762    1.93351718235697    2.59760411597786
O           2.10872458719102    1.75192797906698    1.21364341796116
H           2.42631980601100    0.85353478007593    1.07899527122206
H           1.69061803251954    2.08605228384242   -0.40938979311466
H           1.24081336416118    1.68092216330926    1.64843549054781
O          -1.24873945514811    1.63945354179567   -0.44309380466318
H          -0.85483325752056    1.52043224008504    1.10059591270031
H          -0.42100105520806    1.88975795273324   -0.88975308714790
H          -1.50083280768951    0.79166116605456   -0.84360115703801
N          -0.00614097073711   -1.22788935554347    1.49832940379135
H           0.34487232588247   -1.86598236622204    2.20368619382528
H          -0.32663209125327   -0.33861845057306    1.91738290812450
H           0.74078418108842   -1.01103264594112    0.77857241697228
H          -0.82522254903600   -1.70705539366855    0.94562522418692
