    26
        -50.46379650  Gyration_radius:  2.41586068811 Dipole_moment: 9.066
 S          -0.78515470013585   -0.67980963451480   -1.66001312640538
O          -1.43366027733644   -0.87517714336619   -0.33609332614894
O          -1.74943070188211   -0.43122272356021   -2.68595288928245
O           0.09637426134514    0.62438182800404   -1.48272282699822
O           0.17872796977706   -1.73904840616335   -1.88550820869985
H           1.39772891466608   -1.78282089122724   -0.92963716634700
H          -0.58165623852391    1.35431877124074   -1.63427542022900
O           2.12279700489187   -1.85095322035423   -0.23383295617191
H           2.70390803225839   -2.54816579753059   -0.54150505543115
O          -1.92953531019269    2.11808464042161   -1.77682551190218
H          -2.30762869743521    1.35202454443914   -2.23831400810949
O           0.57493282241567    1.15227021853051    2.15358850664820
H           0.91644129433348    1.72524816051997    2.84087775602695
O           2.24421050626968    0.90460209529943    0.14880287565459
H           1.60476228015587    1.02891561673496   -0.57205752699107
H           2.49791680550381   -0.02827003177246    0.07433830087030
H           1.23664527024978    1.17612737352185    1.40839900285597
O          -2.07412920280114    1.43038201333409    0.84052673474221
H          -2.21875018778514    2.07289826559577   -0.84220960984192
H          -1.99743745938007    0.53363842517567    0.46219444889735
H          -1.25071397590069    1.57345128690405    1.32252913675549
N           0.16129236675896   -1.44259846428307    1.55031436915177
H          -0.17810072850329   -2.14207512107212    2.20036674903321
H           1.03202880186927   -1.74198408978334    1.06599380691791
H          -0.56787252468307   -1.26426632333707    0.74185394129582
H           0.30630365406454   -0.51995141275904    2.00916202370840
