    26
        -50.46379651  Gyration_radius:  2.41583963574 Dipole_moment: 9.068
 S           0.24088571259639    0.30200653898294    1.91997654158098
O          -0.44395733190731    1.28654608019631    1.04058174515674
O          -0.38271196270745    0.22145795519535    3.20406232103774
O           0.04609021190447   -1.08897430798179    1.18714632113168
O           1.67140764812510    0.53365796678707    1.88033667619067
H           2.37443596580893    0.29895092770739    0.51911123371087
H          -0.87544655379306   -1.35717254245964    1.49448149396249
O          -0.81085137843618   -0.37150556196811   -2.34531592957437
H          -1.07894905436613   -0.72908403726650   -3.19241202115070
O          -2.31943194610510   -1.30261693502105    2.07061273404312
H          -2.01415880528797   -0.69262176134964    2.76163980754531
O           2.78768001288429    0.23969471149566   -0.39747591185133
H           3.72822152622694    0.36090050974890   -0.25930166606488
O           1.07674296529828   -1.79795795789488   -1.21885626437304
H          -0.15042011056715   -1.01233595027072   -1.96200576131754
H           0.69865821087751   -1.83495532920193   -0.32464288024445
H           1.86256622364680   -1.23962965590773   -1.11440693527767
O          -2.63810590344339    0.28855082826008   -0.09955535153496
H          -2.23017681223626   -0.06530867390430   -0.89905999222194
H          -2.73463572230261   -0.76580707268006    1.36444605976889
H          -1.93250561136558    0.79551319595051    0.34570210349529
N           0.63650935094888    1.61022060631088   -1.22918352334064
H           0.65831629709593    2.56840027979175   -1.55850774146195
H           1.58970654325753    1.20875247095991   -1.11683759695480
H           0.17949055765983    1.54468477209010   -0.22716982656109
H           0.06063998618381    0.99863295243714   -1.84336565569335
