    26
        -50.45730960  Gyration_radius:  2.44883964586 Dipole_moment: 7.982
 S           0.46707833890803   -1.60494997648854    1.74926156116492
O           0.11004349239170   -1.91451693499717    0.33008919098509
O           1.02987818610069   -2.71749636082244    2.42804311002667
O           1.22993470786004   -0.36497397373655    1.79533554299927
O          -0.93333710875585   -1.24159876580930    2.40571253686062
H          -1.02051134189825   -0.29670035328871    2.19337184212228
H           2.04857309630292    0.34806448116711    0.67936616092881
O          -0.62745461182622    0.51641892362350   -2.48693820677156
H          -0.71206360629965    0.53518106910443   -3.44030805011204
O          -1.42253950096467    1.25914700477966    1.47552546239580
H          -1.50819767664192    1.89517896655515    2.18638185989856
O           2.50454606015645    0.85257496533476   -0.05341120782598
H           3.35209879876289    1.12032442717123    0.30315909855528
O           1.39166911155210   -0.92009309132754   -1.79350663437478
H           0.19163365538141   -0.04563031692603   -2.28650561818802
H           1.99246036997784   -0.29845480407707   -1.34728052133692
H           1.01241933302961   -1.45335104900843   -1.06425041421829
O           0.16228373789729    2.20158112925733   -0.37213628598983
H          -0.75659895976089    1.64777612020306    0.83625002198647
H           1.06421973324982    1.85193448637201   -0.23895092709972
H          -0.14326335756546    1.80956557548002   -1.20329509871327
N          -1.92562777427425   -0.63138569121952   -0.42932260719013
H          -1.61925732622749   -0.17727660882567   -1.31728642661456
H          -2.74872682492062   -1.20823981991597   -0.55844700296737
H          -1.06049756174221   -1.24980014184827   -0.08172601483416
H          -2.07876295070639    0.08672073922685    0.29086861831953
