    26
        -50.45555333  Gyration_radius:  2.61988003443 Dipole_moment: 4.929
 S          -2.42768129266813    0.20554210144580    0.92807704333719
O          -2.37466962625028   -1.19305376607314    0.48772572115936
O          -2.14942760515017    0.36514898232748    2.32507927483904
O          -1.55443779180280    1.02687372519621    0.08436128380321
O          -3.90725984577396    0.69662413136960    0.65213302369257
H          -4.04980937889147    0.52572300558931   -0.27572726262156
H          -0.22254944660249    1.15909037543402    1.03457542015756
O           1.56926174673089   -1.66428796352676   -0.87637595798022
H           2.24773339904011   -2.21736777130459   -1.26400715424888
O           1.62871219989487    1.92760634735460   -2.20360283919717
H           1.97726959443620    1.96900095819348   -3.09442094912587
O           0.45324839170977    0.96846306419885    1.73237415194477
H           0.00123084837276    1.20601938393639    2.54824103442601
O           2.58594636572970    0.58364113325015   -0.09921433838082
H           2.02071581740814   -0.80397008643984   -0.60623102610115
H           2.36740474536521    1.17991127531194   -0.84923217410791
H           2.02863582575021    0.88517998094309    0.63047891226201
O          -0.33837099229947    0.12201218503603   -2.12694011536878
H           0.14672819420637   -0.64623592439248   -1.79832380537421
H          -0.86055596259555    0.45645671012045   -1.37198467002990
H           0.82677723253959    1.35280327848500   -2.24533642235403
N           0.02076957900513   -1.64742841770041    1.29452259408844
H           0.26778217420459   -0.67449717571745    1.61752182130681
H           0.11893018469313   -2.32630775645327    2.04144023974637
H          -1.00519108241490   -1.58623706877567    0.96214868862910
H           0.62880672521982   -1.87071071779481    0.47271748584628
