    26
        -50.45981642  Gyration_radius:  2.58901196966 Dipole_moment: 3.920
 S          -2.32671505346450    0.58798672396008    0.84639118794264
O          -1.54888764213079    1.69660349757828    0.33865239952989
O          -3.74412342432691    0.66402139392445    0.70911104264023
O          -1.73002069692775   -0.68494999458991    0.39339766973325
O          -2.03050524310832    0.57340237300290    2.44439974021490
H          -2.90855757864512    0.63268347375925    2.80708726437646
H          -1.13431973838975   -0.97580685164376   -1.10242421443739
O           2.08888462076960   -2.07753730692431    1.28560511157379
H           1.66767572270339   -2.93551211682639    1.35378055489734
O          -0.69298990211802   -1.08545642752463   -1.97820865241822
H          -1.23770366135456   -1.69215110978138   -2.48105163793379
O           1.82628336847785    1.47504062596707   -0.57900926616402
H           2.20996262344523    2.34404186047147   -0.45896677950907
O          -0.31490949264537    1.66650973886789   -2.00680113567094
H          -0.88450678738288    1.81793685390677   -1.22328431600791
H           1.04630370359666    1.60107695753572   -1.20455248007109
H          -0.47981907758334    0.74700376826518   -2.26790748669497
O           1.97936857676939   -1.27861450449553   -1.23531277528036
H           2.18384494482564   -1.89176094553953    0.31692481540209
H           1.06762905255092   -1.30542763810584   -1.57340819921373
H           2.19882385991263   -0.33987533896333   -1.16948423732409
N           0.56419951940259    0.10019203554157    1.37512255230636
H           1.18634342482954   -0.73036587721855    1.55576176488029
H          -0.34172655926745   -0.24687316136090    0.95021071695825
H           0.31385146482656    0.60563555787092    2.22032487919065
H           1.04161397525010    0.73219644232668    0.68364147108447
