    26
        -50.45981637  Gyration_radius:  2.58908596754 Dipole_moment: 3.922
 S          -0.71231914124455    1.07337344411325   -2.19464671094865
O           0.37795583118172    0.12750532993660   -2.28701152735060
O          -1.57151201174234    1.19610096811111   -3.32617009682167
O          -1.41096706771147    0.90010426292724   -0.90485986055281
O           0.00887379770379    2.51931612825643   -2.01974340812909
H          -0.36065942059004    3.01132180766190   -2.74597592105982
H          -1.76862570286020   -0.53420983698768   -0.20368590594339
O           0.24152665231785    1.40144127631436    2.88368280497779
H          -0.60332254659779    1.79398234620101    3.10805211709680
O          -1.87824546984726   -1.40924165643563    0.23918196071981
H          -2.81663308457245   -1.60149252670604    0.22861410748852
O           1.96792804809884   -1.31992305688517    0.47934557489723
H           2.86296093826101   -1.53084405273403    0.21251307588371
O          -0.12582664692759   -1.17196239096895    2.38491081641490
H           0.09783596921706    0.42110443858330    2.87507652495731
H          -0.81894977608158   -1.30549693343248    1.71556942927130
H           0.69969929903957   -1.42304629863610    1.94997897658592
O           0.30315493147203   -2.30223070575415   -1.23050712518494
H           1.36533692602374   -1.79286718142050   -0.17545474952316
H          -0.54252350176297   -2.25008930437459   -0.75825711192254
H           0.33263484471687   -1.50116718426640   -1.79499900820673
N           0.88919015386349    1.15214303056086    0.31577277439885
H           1.39321638317579    0.22943841234012    0.30410467100447
H           1.38699682743067    1.84768240667081   -0.23281193849837
H          -0.05847328996428    1.02824450241606   -0.14051664438050
H           0.74074703740609    1.44081278446400    1.31783717482915
