    26
        -50.43947723  Gyration_radius:  2.63423666073 Dipole_moment: 7.870
 S          -1.65064774446512    2.04155833932115    0.87320330548638
O          -1.68128961369391    0.74698522753802    0.24916451774245
O          -2.87867514851495    2.61957053161001    1.27731552243195
O          -0.66969784127803    1.97139378502738    2.08341570942900
O          -0.92070626464593    3.02758225999728   -0.08811662817566
H          -0.20345728967185    2.50534650521857   -0.51725102952826
H          -0.29633168048062    1.04953668042912    2.19803826223304
O           1.01489456747419    1.69367951100240   -1.29150433905722
H           1.44239240502361    2.34099467614052   -1.85602117855371
O           0.49644105635077   -0.30746172394452    2.48213905275994
H           1.07780871655194   -0.11401178630049    3.22018336880065
O           0.66044504485361   -2.29325671846511   -1.13349171360029
H           0.80499401137570   -3.22721301581072   -1.28701127082320
O           1.99203078117412   -0.37344673837843    0.32939153138582
H           1.63957754039870   -1.11100581360108   -0.19981197632781
H           1.73609759328369    0.43129513963279   -0.14583107112791
H           1.08168849898791   -0.37138248764819    1.67666648856315
O           0.29147670222016   -0.27961981615315   -2.89418533159290
H           0.88767091306120   -0.50217660326122   -3.61138301726629
H           0.30862469375154   -1.03919536181901   -2.27518490946256
H           0.61838755350532    1.00945415308503   -1.89096897588575
N          -1.22849174906109   -2.00733431454489    0.63064810755602
H          -0.84243482137419   -1.97592145856949    1.56759139526008
H          -1.50134504342416   -1.04722904692522    0.41192166651593
H          -0.10683994268991   -2.22295909027756   -0.46495750333465
H          -2.07261293871270   -2.56518285330349    0.65603999657198
