    26
        -50.45564905  Gyration_radius:  2.47623253061 Dipole_moment: 3.747
 S          -0.67125804202901   -1.70931212097554   -1.46226122083066
O           0.19419471143809   -2.85010437411284   -1.48079298102340
O          -0.27664688002694   -0.66522874961087   -2.40606374819992
O          -2.11406598795817   -2.20273029782231   -1.92604742955962
O          -0.89175461294914   -1.14272124826948   -0.13311377321819
H           0.87608886629245   -1.07743042795426   -0.25945607907892
H          -1.94351139599040   -2.86866627434350   -2.58624583299523
O           1.82635218518762   -0.88809778579824   -0.29791589213759
H           2.16379676197816   -1.49482907789027   -0.96125782887622
O          -0.40687409907114    1.74761732865724   -1.79279707264353
H          -0.36852163551302    0.77216296208525   -2.15328549614576
O           0.15910259665643    1.84068442088005    1.97322128101442
H           0.23771972020976    2.35465484479014    2.77705158058806
O           1.63280820350598    1.79969429422191   -0.32378528124998
H           1.88596218381422    0.85333146798105   -0.34124533128363
H           0.50159109795064    1.86709422957990   -1.27478205277018
H           1.21304753286952    1.93922434282181    0.54737241050736
O          -1.85827294210570    1.29514807738251    0.20507553585183
H          -1.68769520200952    0.32941267148855    0.14039006847567
H          -1.28619069647054    1.60717597528113    0.93171051106767
H          -1.11864990535706    1.68940573546947   -1.02513080462368
N           0.39858205402074   -0.74250244910208    2.44467665701532
H           1.33565106778780   -1.02802988293358    2.18397392573402
H          -0.21623062550346   -1.06811179769361    1.70106312104022
H           0.14482793164639   -1.23035471384595    3.29442877193389
H           0.26994709162655    0.87251284971342    2.22521697140480
