    26
        -50.45564914  Gyration_radius:  2.47632269459 Dipole_moment: 3.757
 S           0.36013211631581   -2.09438682058265   -0.99770252004638
O           1.73648163073267   -2.47763801496541   -1.09588415403421
O          -0.10768812879754   -1.31106567420686   -2.13958599314949
O          -0.50441136522294   -3.43358883849684   -0.99610998859972
O           0.00759023158637   -1.43344931851922    0.25731564539659
H           1.31296624051992   -0.39187547634672   -0.33528046968144
H          -0.04031343285228   -4.02317970790622   -1.58376021584091
O           1.92397765812462    0.29274631783038   -0.64901449272598
H           2.47638406544799   -0.15766425449254   -1.29247564427458
O          -1.63161068649420    0.63828546981437   -1.83538642060040
H          -1.04093268216019   -0.18772328212306   -2.06258217777872
O          -0.77148247682191    2.03495710323572    1.60249151338369
H          -0.92859880922468    2.69028725103402    2.28248724369525
O           0.09855751730567    2.24747614191479   -0.97607468388589
H          -0.93841254568386    1.39314773487421   -1.59563022001007
H          -0.20111171256600    2.34325245250564   -0.05108497865255
H           0.88093007853336    1.65896015482703   -0.93545887258748
O          -2.21361285437769   -0.02179519361885    0.51572772348861
H          -1.48886681756745   -0.68529041138306    0.53512150082027
H          -1.87363442492957    0.74254606068529    1.01865248413251
H          -2.04623035409815    0.38481447084968   -0.90623402612668
N           1.08085513548040    0.30533329311956    2.32992289404846
H           1.94924218166533    0.55771470205175    1.87187284785983
H          -0.05105423941257    1.41899051678122    1.94142924405179
H           0.71453115714785   -0.49895404055124    1.82407973077481
H           1.29631255734222    0.00809938367137    3.27316400034046
