    26
        -50.45564908  Gyration_radius:  2.47632689986 Dipole_moment: 3.754
 S          -1.96088962611763   -0.05900524644435   -1.28980414625158
O          -1.81552364524110    0.45825596229875   -2.61720696251251
O          -2.29982780887633    0.96319469972057   -0.30159944946903
O          -3.18688973769824   -1.07742006857274   -1.31091829610793
O          -0.82970003766523   -0.86247763252221   -0.83008740447492
H          -0.03317193414495    0.66559147838464   -1.24429424549530
H          -3.80781096782971   -0.69863314618835   -1.92682450589785
O           2.16080661031868   -0.61395250932962    1.50371735861205
H           2.99183423930964   -0.89448137796764    1.88737689969961
O          -1.27918437014212    0.95313763726775    1.97270291261711
H          -1.79283849525344    1.00686269716570    1.06919196907699
O           0.45445136589208    1.50006766793408   -1.32392106111481
H          -0.07443553733379    2.02867132830545   -1.92634654848680
O          -0.44998855385453   -1.40400068871352    1.73040090407284
H           0.51544892693986   -1.27435688675325    1.79216824862900
H          -1.00992649533662   -0.05841807593783    2.03281116130822
H          -0.64885614234302   -1.40108080269628    0.76796700325050
O           0.97601746005983    1.83682089947445    1.29820376031083
H           1.52470430741023    1.04395478411474    1.45584035661527
H           0.86238621570587    1.88434076270083    0.32613396242003
H          -0.36537578585217    1.43802906865875    1.77885597458892
N           2.05728523981075   -1.13641252283649   -1.07859740311406
H           2.19538301115280   -0.83326481883115    0.52193085386372
H           2.52188340304655   -1.89368039447116   -1.56348973268452
H           1.05319686551660   -1.29447155403103   -1.13994489963721
H           2.24102149251440   -0.27727127072023   -1.58426669982051
