    26
        -50.46511804  Gyration_radius:  2.56918945714 Dipole_moment: 2.640
 S           0.73808352185974   -1.48426716855813    1.82072091847357
O           0.11178968562163   -0.86458409259599    2.96793978368362
O          -0.15576522679060   -2.11197775473440    0.88619363364329
O           1.64787985218651   -0.54971146030334    1.13039218227647
O           1.68247207662022   -2.62484246523050    2.41054247875655
H           1.87811878569257   -2.29486521392471    3.28195677935531
H           1.23236910607816    1.01500153811501    0.99862233911311
O           0.89054793312598    1.93455599309167    0.86519184847598
H           1.45484257196265    2.50911271999414    1.38396372436428
O          -1.79969281291489    1.41537545179694   -2.66045224925021
H          -1.81322030706391    1.37418319145187   -3.61714621918507
O           1.06237036806913   -1.05419835644930   -1.34111891834230
H           1.19194048290968   -1.99756900429125   -1.45466224105454
O          -1.45745469437113    0.66598140777833    1.50212657213781
H           1.36118280715729   -0.86908427171694   -0.41295252979874
H          -1.01426905481964    0.06856899245338    2.14218422719441
H          -0.81091488259849    1.37096828075975    1.33011954999686
O           0.71341805515909    1.70286554676856   -1.88354391548632
H           0.76193007743157    1.95769500105080   -0.94596501220471
H           1.02876916165970    0.78996480737608   -1.91003779370560
H          -0.87923832044506    1.68071522585842   -2.40764169386002
N          -1.58437575698527   -0.53322171043726   -0.83623910441978
H          -0.59633076080277   -0.83682836836757   -1.00448077051622
H          -2.18000879071994   -1.35330581626657   -0.80178224430827
H          -1.59758756535357   -0.06507502020032    0.12753013419063
H          -1.86685634255662    0.15454254638821   -1.57146147954939
