    26
        -50.46701474  Gyration_radius:  2.5195163429 Dipole_moment: 3.091
 S           0.14118367266743   -2.24184052129615   -0.27103009180142
O          -0.44561698141068   -2.81108922988775   -1.45006085863858
O           1.49147225835630   -1.73247179424900   -0.43242979479371
O          -0.71877038575812   -1.22916654571568    0.35820519822432
O           0.24418532697747   -3.42348924073354    0.79802705827199
H          -0.15921899657922   -4.16492101974534    0.35712452546169
H          -1.07654080943766   -0.73248713614678   -1.31362869023547
O           1.26586719388987   -0.53306361355636    1.93985171493183
H           1.82108562446464   -1.07757853008307    1.36073809368705
O          -0.99640826216474    2.93911327655178    1.12962472668550
H          -1.29233796995160    3.07859024224260    2.03031473318064
O          -1.19841541098450   -0.22517969202851   -2.13473937483090
H          -1.24361856676744   -0.89659274552023   -2.82030317619923
O           1.36062223961658    0.60094476381666   -1.69106786449206
H           0.45042113466252    0.52310942562982   -2.03312729798989
H           0.37061302169217   -0.77513135534954    1.63037558642156
H           1.56535010357113   -0.29340911024830   -1.34204287609566
O          -2.41658954152748    0.92069875799592    0.20869979188482
H          -1.92135205609100    0.12255400318795    0.45629501501426
H          -1.59462343129340    2.24201380239266    0.75386012695168
H          -2.41771476556339    0.91226325484811   -0.75508280179883
N           1.36566229643222    1.78192567768464    0.65186318906047
H           2.17671834280184    2.36868184583360    0.81283955599889
H           1.38587117139470    0.92061037624578    1.27387728566285
H           0.47689388794099    2.31274589979721    0.83623052848699
H           1.36526090313556    1.41316920836434   -0.35441429302514
