    26
        -50.46701509  Gyration_radius:  2.51965757531 Dipole_moment: 3.103
 S          -1.06513261180866   -1.98649508517552   -0.20674725830434
O          -2.34227326983117   -1.99613566984216   -0.86057275314519
O           0.08637085329269   -2.05414711116398   -1.08858378020552
O          -0.92259490316963   -0.87148247469216    0.74084184998385
O          -1.00658631537009   -3.30619070706286    0.69050712570845
H          -1.87023542489720   -3.69290661052212    0.58348472291599
H          -1.77829253537328    0.07480878423967   -0.50053372282752
O          -2.03768472798500    0.75117556585681   -1.14994822263931
H          -2.71917101374321    0.32303371289907   -1.67437183598530
O           1.64126492891450   -1.40930039557419    0.98317900372156
H           1.51942231978935   -1.99918234812916    0.22358947731286
O           1.17795941831140    2.77134709253571    1.35585171451543
H           1.46711250384659    2.82426713349016    2.26789983302997
O          -1.25504885607999    1.76406160795962    1.42825731693485
H           0.22983265805136    2.47997598553635    1.38989932781400
H          -1.73350530146429    1.96383101977378    0.61571865101764
H          -1.13655517107874    0.80012388971706    1.40754791452990
O           0.45044378599873    0.33702770864838   -2.18202748620930
H          -0.42542727983624    0.71575685718564   -1.97966068170117
H           0.71498551641374   -1.18968023402608    1.20674166534827
H           0.35987808813716   -0.61448939651365   -1.95849151658144
N           2.15183698863157    0.87639628618596   -0.25911383527906
H           3.10087637273337    1.02740295640440   -0.58242065606138
H           2.07413621703137   -0.02837793859818    0.29270661320745
H           1.83197893122426    1.67281307996379    0.34832581575600
H           1.48640882846530    0.76636627091205   -1.09207927281389
