    26
        -50.47298285  Gyration_radius:  2.48773232707 Dipole_moment: 1.896
 S          -1.37348308373103    1.64316308355577   -0.11757669289003
O          -1.42042436576499    0.39073024326666   -0.86883861802362
O          -1.15591204141459    1.41921809122662    1.29584851152668
O          -0.46198605737115    2.59695432319516   -0.71666289494813
O          -2.81777529455496    2.28608789336821   -0.23997440146772
H          -2.78023306435138    2.69957674304850   -1.09588823795499
H           1.06260457431225    2.09415218851363   -0.75126177347615
O           1.09918572095935   -2.74492318384330   -1.08147597848528
H           0.47470081475497   -3.29655985936101   -1.55499287665323
O           1.97176363876774    1.69787785464430   -0.72832729302488
H           2.58067450957871    2.41679167667830   -0.90478506946560
O          -2.07476763462825   -1.08828424960066    1.17398585096736
H          -1.98557458582831   -0.72208110745599    0.26773275579005
O           1.32755009270170    0.54319194404497    1.65364446814414
H          -2.03051656328082   -0.28233309479498    1.70964272820390
H           1.76357472862788    0.89937412689533    0.85848172594375
H           0.44383526375926    0.96725210286430    1.66400888891491
O           0.80405017735506   -0.38045383674996   -2.14346198307579
H           1.42706861092767    0.27507286044346   -1.79573231928773
H           1.07735251641304   -1.86133547717333   -1.54558081359222
H          -0.06626997688650   -0.10856166021108   -1.79028513861755
N           0.43479261427387   -1.91182667509473    1.35423638028170
H           0.67041659453704   -2.54668060762788    2.10865137250021
H           0.72677868135902   -2.31019587949202    0.42075295186484
H          -0.60885947006737   -1.70923076324224    1.33259392872084
H           0.91145359951736   -0.96697675707764    1.49526452814071
