    26
        -50.45774302  Gyration_radius:  2.54204239936 Dipole_moment: 2.979
 S           1.83580737979862    0.03936348915751    1.33031600022913
O           1.45468612961808   -1.35257935866322    1.36423162344386
O           2.29887377742948    0.44375305443140    0.00234768369973
O           0.83155787350732    0.95422826377235    1.84861218426225
O           3.08686356598719    0.18048448956949    2.30067394840256
H           3.51863181629063   -0.66450282481798    2.22159667463128
H           0.57202665050371    2.23653678796719    0.70842084040956
O           0.68870447626072    2.54025677484488   -0.21543062553295
H           1.50634703551162    2.06802513011102   -0.45079482629421
O           0.93195425499497   -0.91993063276854   -1.73243241816214
H           1.48499506136730   -0.51188359588878   -1.02070377356374
O          -2.60934448819016   -0.30999143345034    0.28639316463618
H          -3.40285033136186    0.02699843267047    0.70367176484893
O          -1.00228581855646   -0.89626461053524    2.23350165089737
H          -0.53056013354622   -0.05085358390857    2.34508196995235
H          -2.00767738713880   -0.59827866243953    1.03590395277046
H          -0.27776506810551   -1.47366686495203    1.93688626716970
O          -1.82724994655369   -1.73581238542324   -2.08435621497065
H          -0.91834124164887   -1.95817814920147   -1.85941346757484
H          -2.27840336407356   -1.57821466294135   -1.24731038341356
H           1.52817229863999   -1.11352041649811   -2.45762041271492
N          -0.99072005784456    0.95198552581901   -1.46245417474820
H          -0.34332968857877    0.17403935799168   -1.73556867568100
H          -1.47685132784328    1.30190574494284   -2.28149557699771
H          -1.67983959517033    0.54406036697636   -0.78474269814698
H          -0.39340187111413    1.70203977338040   -0.98531449766240
