    26
        -50.46043168  Gyration_radius:  2.42372512358 Dipole_moment: 5.371
 S          -0.71632562268037    0.92485491219328   -0.79394645826615
O           0.70161069860846    1.28295812518817   -0.58284920612143
O          -1.13300037368410    1.21410218952288   -2.14534455669626
O          -0.72296531147285   -0.64628454436720   -0.66542485099634
O          -1.55950720387166    1.46025933096481    0.25099096605360
O           1.85722669003502   -0.45429298420204    1.10381982003151
H           1.37542269090614    0.25314647368746    0.62984771518877
H           2.34118680450766   -0.00308484997850    1.79871381660113
O          -2.35383606246869   -0.94621277584503    1.24107544062285
H          -1.39902385809713   -0.88519488707219    0.05657103727568
H          -2.53933849520777    0.00185261998698    1.18895893283491
O          -0.28847333347148   -0.85466039629436   -3.44501293629383
H          -0.90478201068046   -1.53083055231849   -3.15284401494567
H          -0.66278499388624   -0.00263339032255   -3.08984392949831
O          -0.07604901111280    1.79158270902649    2.42671994763963
H          -0.57687850299021    1.73502402213423    1.58502721437749
H          -0.38099352656355    2.58942086440557    2.86052787650475
O          -0.27111395138857   -0.88606541640133    2.86825873334701
H          -1.68688821244523   -1.05060544578149    1.96793484513529
H           0.45780343477004   -1.08888796875381    2.26110154377566
H          -0.23245886451726    0.08300405547647    2.96326268712588
N           1.78996158003145   -0.61963080117995   -1.88075001807442
H           1.85448665850557   -1.31653121600232   -1.13880437054581
H           2.68645087152438   -0.47972297307787   -2.33585064501354
H           1.00835199258100   -0.85721693912735   -2.57864986922069
H           1.43191790306119    0.28564984814341   -1.39348974083746
