    26
        -50.45774291  Gyration_radius:  2.5430276856 Dipole_moment: 2.961
 S           0.04878088384493    2.26900884256656   -0.04702729667139
O          -0.66463143751110    1.95186336019324   -1.26107327084065
O          -0.71991200220705    1.90873398797611    1.14507032653680
O           1.40445336270319    1.74639741671110    0.01251072489056
O           0.19675482618062    3.85145150828232   -0.02009223691546
H          -0.58459991712562    4.14881116391904   -0.47584222374911
H           1.64137618249325    0.91497116636974    1.51970546166770
O           1.20934003867892    0.49888302144286    2.29383408930766
H           0.39765088147230    1.03331088380679    2.34655937307055
O          -2.08332560161051   -0.22241303806533    0.56493242280233
H          -1.61867040530126    0.64291587965515    0.68450160829049
O           1.12227429207000   -2.00271308080321   -1.30985797800664
H           1.95071635208171   -2.41465222875252   -1.55759266882219
O          -1.61910426477106   -2.72339502883386   -0.82676838757426
H          -2.92266656684444   -0.14099718997920    1.02071398418574
H          -2.02294806975817   -1.85025196485538   -0.80017120470068
H          -0.79850338702029   -2.62278907776047   -1.32222829644525
O           1.24606065686940    0.40941341640280   -2.25008208038921
H           0.37000419094571    0.83090583677582   -2.27755857653711
H           1.65378449356139    0.87949232371644   -1.49985283817253
H           1.13622813831138   -1.08957930996056   -1.72562290033744
N           0.14085936925721   -1.62203591456093    1.17232441471506
H           0.66181312194525   -0.84530585378035    1.69415509902353
H           0.60123347759720   -1.81921131076223    0.25038897357115
H           0.07001083439421   -2.47749436209318    1.71341029419743
H          -0.81697945033568   -1.25532044755383    0.95566318708803
