    26
        -50.44974530  Gyration_radius:  2.55345797993 Dipole_moment: 5.641
 S          -2.41507691351366   -0.78718617718715    0.82553080710879
O          -1.20971167498140   -0.22652266040340    1.39835870732305
O          -3.45646751956425   -1.13572122506967    1.71420923918293
O          -2.95747016308498    0.20585940970773   -0.23552034586661
O          -2.01442928118878   -2.03560075802080   -0.00402832901200
H          -1.09342138565088   -1.94982436506990   -0.38538947506701
H          -2.22243844625704    0.72108575244985   -0.67154021537203
O           0.41237606706108   -1.99253144071157   -0.90664848978791
H           0.63583167806369   -2.90152771638534   -1.11322715368998
O          -1.12898420112822    1.71453489714054   -1.30171203451982
H          -1.58793483637506    2.49527795479060   -1.61632936796597
O           2.46809375628978    1.24158105783151    0.12682193289383
H           3.14012521287731    1.88046319750975   -0.11314804561399
O           1.20586987906840    0.39600913054992   -2.04850587834191
H           0.96349767413563   -0.51522660216538   -1.81853605194590
H           0.37530917143715    0.89391230379104   -2.00308106993386
H           2.07707604003078    0.91619693084599   -0.72526469694346
O           0.02091197555332    2.13020472188256    0.95364004717494
H          -0.41051054712149    1.34864235808033    1.34332780541963
H           0.95081991404120    1.86958477108692    0.79758595544453
H          -0.66783256364731    1.97736441638224   -0.43777430750759
N           1.46409665809867   -1.26317667128798    1.33815040909019
H           0.89372226673905   -1.75415656885687   -0.03014626296089
H           2.06766322522411   -0.46495846908182    1.16574121458390
H           0.58808861118583   -0.90870597431387    1.71624283703400
H           1.90079540271283   -1.85557825349554    2.03124275927774
