    26
        -50.46264608  Gyration_radius:  2.56069235983 Dipole_moment: 5.092
 S          -0.61440232309056    0.07953235957877   -0.92452483134942
O          -0.08602689663614   -0.65760829999677   -2.06931193771551
O          -2.14714947302868   -0.00370891073677   -1.04024994415572
O          -0.23147587633646   -0.60479859410490    0.33037650218365
O          -0.19640598824244    1.46659645082428   -0.90796105440921
O          -0.97989370430973    2.94940441265262    1.11141563692773
H          -0.63871566272776    2.42164224312598    0.35280576997284
H          -0.71289567537961    3.85410904409552    0.94443209379425
O           2.21160652843096    0.38627828418850   -0.04999005332909
H           1.89433947049356    1.09117398621877   -0.62467453890850
H           1.39030270610406    0.01802632432420    0.32198932400401
O          -1.26362811807769    0.44653057247577    2.59599846622133
H          -0.91604838330744    1.34527544440119    2.55643586394024
H          -0.83860305802502   -0.02835064753598    1.85877320859248
O           3.35466528183051   -1.84518649236093   -0.94247582416062
H           3.08917217285496   -0.97900867523596   -0.55015403850597
H           3.70723242480646   -1.64390358867087   -1.81126764377279
O          -3.15590017051452    1.28349679191710    0.92100619231885
H          -2.69372466450561    2.13727400281478    0.89439956969298
H          -2.60295354048446    0.50587617205144   -0.28459661461571
H          -2.72910653699749    0.82383938902868    1.67889775757992
N           0.83881315379666   -2.66850363181149   -0.87031702815797
H           0.42884113734894   -1.94366826286410   -1.57751882567707
H           0.54618208741395   -3.62531433280524   -1.03264028144514
H           1.88813559313444   -2.53941734429302   -0.88487103952269
H           0.45763951546113   -2.26958670727157    0.00402328050527
