    26
        -50.46021170  Gyration_radius:  2.48566310847 Dipole_moment: 7.829
 S          -1.68242112363055   -1.13997370585556    0.92242275059428
O          -1.52726472727476   -0.54241999302495    2.22138074000242
O          -2.44739697891137   -0.30627382228195   -0.00802549307851
O          -0.43517166270679   -1.57249114150212    0.30572157521696
O          -2.54075054105624   -2.45498683984029    1.14573051983175
H          -2.93951286437624   -2.24762342322437    1.98352376507485
H           0.13861377675478   -1.41755474380225   -1.18337417866967
O           1.97652141977503   -0.89568112916581    1.43194578342996
H           1.16156699413333   -1.32998974125287    1.13239298251729
O           0.45033882439655   -1.21424871157097   -2.10506269020875
H           0.46790146593889   -2.05188154538139   -2.56951259973032
O           0.75543984119790    2.27247455069133   -0.26932058559915
H           1.20209413888424    3.11834612995742   -0.31754732114875
O           0.55225781161173    1.18596306862910    2.39894818059650
H           1.66091251235699   -0.15193235611105    1.98559389770404
H           0.47193689228468    1.68109518237838    1.57348747184747
H          -0.24181365094692    0.62536006635146    2.46070763048037
O           2.41115658197848    0.38543975613074   -0.81385175839527
H           1.46402223804202    1.56928046787908   -0.44926856864148
H           2.42483617264377   -0.10893182889770    0.05105440551017
H           1.94579549382532   -0.20429171583889   -1.42205076967701
N          -1.05835178260018    0.98226435911613   -1.72247285330676
H          -0.48400027081690    0.23170301351782   -2.15164545888058
H          -1.69352980843776    0.47980098594546   -0.99741925497516
H          -0.41998725260051    1.62733575722612   -1.19323565514779
H          -1.61319352046177    1.47921733994029   -2.41012252532357
