    26
        -50.45332173  Gyration_radius:  2.73253227942 Dipole_moment: 4.602
 S           0.37908467581512   -2.82025495160023   -0.20867588508055
O           0.47558200878498   -3.05948497904773   -1.62726417725595
O           1.58976143151359   -2.20104267903768    0.33766835935283
O          -0.81227928515247   -2.06689804380365    0.17086679297697
O           0.24009725819339   -4.23811141503576    0.49775382488158
H           0.83667722100398   -4.79450226319908    0.00481814507189
H          -1.01104505516256   -1.18142352638917   -1.27588576918835
O          -0.71757710741635   -0.65871397279765   -2.05425867630683
H          -0.31225825531686   -1.33632772851837   -2.60885429208438
O           0.61585343392324    2.99885638411913   -0.28802714646732
H           0.54895198531910    3.93847742655628   -0.46200373971550
O          -1.10270106819814    0.29568246874334    1.39776276597666
H          -1.15911431540579   -0.65418384372507    1.17613936922358
O          -1.81628741751281    1.65394020941888   -0.79960799130560
H          -1.01272014378212    2.20013477454819   -0.78652470599892
H          -1.68862119594060    0.99373697635478   -1.49099476596486
H          -1.64204494787250    0.76084615206747    0.71992290820374
O           0.36098146902315    2.39266435236883    2.35552756907847
H           0.92903836931084    2.14113409221580    3.08469891361430
H           0.54981575271305    2.89825480054962    0.68177665571388
H          -0.29264391937039    1.67985574035531    2.25359914760903
N           1.04369467161054    0.23844671261745   -0.22047777070776
H           1.47192415258618   -0.71070610102757    0.03297182469738
H           0.51125584430394    0.08522930869069   -1.10644370102638
H           0.32061893204817    0.42934712336082    0.52148275951367
H           1.69395552495827    1.01504300229896   -0.30597043475650
