    26
        -50.45332207  Gyration_radius:  2.73208804989 Dipole_moment: 4.591
 S          -1.50599836470485   -1.67096880674262   -1.75313502166533
O          -2.04147741160286   -0.75980808001959   -2.73408976534787
O          -0.07474844614136   -1.92103923917310   -1.94469653733674
O          -1.78941547688769   -1.27142729811968   -0.37806191200041
O          -2.23875924449652   -3.06693061830160   -1.95975239331612
H          -2.30307621636380   -3.14970493730318   -2.90720065254609
H          -1.86788428408513    0.41693804494940   -0.62510537681817
O           2.17736993353574    1.97547506539676    0.90168528750758
H           2.64532686750849    2.70494744491787    1.30969757592483
O          -1.59107698096752    1.28088417233868   -1.00222971984844
H          -1.88881429680017    1.20423595245529   -1.91689082986354
O          -0.16518302165586   -0.67475941416600    1.66556850217749
H          -0.85569135524140   -1.08910582016112    1.11233289617487
O          -0.56926142270113    1.97281554166401    1.56911903363314
H          -1.10300472082993    2.06326675899629    0.77093131938426
H          -0.49349390060408    0.22892386488843    1.87118474133250
H           0.34926091672580    2.15637446030980    1.31064688185249
O           2.48209593396599   -0.36555087512082    2.25973504412009
H           2.97558000332208   -1.18012135070795    2.15615125370586
H           2.38244285365098    1.18719997320770    1.44196917685761
H           1.54181583129914   -0.61203606640933    2.28869492981912
N           0.82734811441077    0.12814055662921   -0.70044086350754
H           1.74178197861575    0.56109458609017   -0.79876341382951
H           0.64523916487985   -0.73543229519451   -1.30809452158220
H           0.66068670317817   -0.18458702090690    0.29176049333224
H           0.05893685179549    0.80117538053369   -0.92101612823536
