    26
        -50.47039591  Gyration_radius:  2.41532752009 Dipole_moment: 4.721
 S          -0.11917423092321   -1.00245367177918   -1.76289025385666
O          -1.49175577186356   -0.62741197807926   -1.41299989495555
O           0.73938293429386    0.13958486206501   -1.95456486828630
O           0.40010961861243   -1.98385659866697   -0.82374794157112
O          -0.20843654704231   -1.73094412673381   -3.16502376000009
H          -0.67675868789975   -2.53105255444192   -2.95313121346444
H          -1.01034750860250   -2.43798779788496    0.66453265864336
O           1.93893914545879   -1.04322334354704    1.14212174032611
H           1.50822979409831   -1.50575164578265    0.39186754244789
O          -1.71446223486843   -1.81553931496049    0.88760642051001
H          -1.83973076728806   -1.32978016438781    0.03981056016490
O          -0.25100343233032    2.32697086841353    1.01327800183051
H          -0.54721147875515    3.18628025154924    1.31551282832703
O           2.22560568181834    1.30855022716648   -0.03738117307956
H           1.53320500385160    1.84671366165056    0.36912148090745
H           2.29792207651008   -0.21172540539688    0.75048555026685
H           1.82835893980750    0.94223506201291   -0.84916917125301
O          -1.14447495402261    1.97298325350335   -1.40149511278262
H          -1.52122456179739    1.06926172955743   -1.39996448463895
H          -0.32908600945350    1.84989703256098   -1.90604292507477
H          -0.63579491938823    2.21123987233778    0.09401734306518
N          -0.21022532420661   -0.11209326478837    2.22892942556706
H          -0.30460985842099    0.85235334293874    1.85348835227680
H          -0.93980796146705   -0.74730415281039    1.78889625584823
H           0.74870190370468   -0.50938006520053    1.88645739687344
H          -0.27635084984875   -0.11756606933394    3.24028527190342
