    26
        -50.45332212  Gyration_radius:  2.73168008643 Dipole_moment: 4.594
 S          -1.95355007930859   -2.07215196903953    0.13586867089422
O          -1.33814494753172   -3.07858676311089    0.96514422787932
O          -2.41096581228089   -0.91428865092353    0.90886982608238
O          -1.11670610503251   -1.65726997575647   -0.98589375601096
O          -3.25233383172157   -2.72489012760192   -0.50889520982893
H          -3.62004813522986   -3.24322674123889    0.20139235836709
H           0.40993439907605   -1.95276763520341   -0.27744917033549
O           1.89972466390043    2.20975365555810    0.98104492656811
H           2.66247974586415    2.77293671198167    1.11761364114436
O           1.07565185867129   -1.95543116855149    0.44502295744716
H           0.74948194668922   -2.66329578301202    1.01411859741792
O          -0.09959804183778    0.73009974767730   -1.64746698567040
H          -0.58524765792749   -0.11724586170038   -1.67367804188867
O           2.41434161600669    0.16991656649937   -0.90662518103912
H           2.31195146438820   -0.69558407593402   -0.49360168000308
H           0.85407160273425    0.49331195124274   -1.68115700831189
H           2.40360366505902    0.82325050342933   -0.18742419556846
O           0.07922602453307    3.29538697038068   -0.72838414877595
H          -0.03839743339041    2.51297537436290   -1.29377065353744
H          -0.77811412853118    3.71776615686514   -0.66375339443523
H           1.30085257379902    2.70531082069351    0.38835128032146
N          -0.18904304626421    0.35633966117614    1.01333106146307
H          -0.15667884060135    0.72728749389868    0.02773680173587
H           0.08785428749201    1.07019666731931    1.68198629557010
H          -1.17307993056561   -0.04929277953718    1.13489502318130
H           0.46273415199141   -0.46050074946249    1.03272375734546
