    26
        -50.47039590  Gyration_radius:  2.4152982417 Dipole_moment: 4.742
 S          -0.57494568566696    1.37448925267437   -1.38125349922046
O           0.77878384736401    1.75485960877492   -0.96869494425702
O          -0.62605898374340    0.07265952371865   -1.99823470225257
O          -1.51350900711383    1.54717258888962   -0.28413786830704
O          -0.99661525023297    2.41200426477036   -2.49939302402623
H          -1.02884395398261    3.23228676735118   -2.01927326292597
H          -0.54874624867197    2.23611953050518    1.44377455229353
O          -2.12388301094237   -0.64075058220734    1.11539234909556
H          -2.07964142983731    0.18602753284464    0.58931615685079
O           0.39607339303587    2.08855683810735    1.58036887182628
H           0.73531557016667    2.04523366634275    0.65669454202872
O           1.59814366362415   -1.95527491834260    0.35035747470958
H           2.34983587153639   -2.54256130432909    0.43735161264345
O          -1.06329116428483   -2.24612462518813   -0.70126797580781
H          -0.99368046371141   -1.49313265755442   -1.31712254854650
H          -0.16697631554017   -2.39325898681457   -0.37071990011101
H          -1.95722930209528   -1.36158167795478    0.46236818977587
O           1.99590780015696   -0.44254261562824   -1.72546619593322
H           1.79723890621566   -1.36896163559327   -0.43889121012226
H           1.78166105885843    0.46338329452977   -1.42205809122300
H           1.23376679670814   -0.65362848840112   -2.28133176870776
N           0.22258288372771   -0.47541239318730    2.18009127135950
H           0.42787464137627    0.55735835107922    2.03641620680294
H          -0.80637517313499   -0.60634066087074    1.83530572518671
H           0.83590578724670   -1.04898425234608    1.56791385608999
H           0.32670576896419   -0.74159642116562    3.15249419276341
