    26
        -50.46264607  Gyration_radius:  2.56088394042 Dipole_moment: 5.092
 S           0.79005397747530   -0.68139460181025    0.38628081347303
O           2.29076025597634   -0.66562022467674    0.04351741273508
O           0.11290717719798   -1.68242353602633   -0.41261164200512
O           0.70975718905408   -0.95141315104386    1.81942623795114
O           0.26090710071293    0.67102328580884    0.10247562629679
O           0.49012089661933    1.49942187357701   -2.45945759737503
H          -0.01002840092415    0.81486657240727   -2.91918175849635
H           0.35767593943181    1.32354321262536   -1.51010582092262
O           0.07541291958238   -1.33971262581700   -3.01479227326244
H           0.03895195923092   -1.49074564840025   -2.04212853504268
H          -0.31959498211821   -2.11413683109589   -3.41709457123975
O          -2.16584587419647   -0.36550761836112    0.46758312060710
H          -1.86658660960170   -1.26447993757397    0.29406575082325
H          -1.40188967974020    0.17686997462654    0.20173254277871
O          -2.59394886448246    0.60419124524129    2.90880117913254
H          -2.60841560990460    0.25530058539537    1.98540746224988
H          -2.75946178767779   -0.14967821752940    3.47796088631297
O           2.52251815076819   -0.21975886576576   -2.46033253786707
H           2.44102325412908   -0.50224176247797   -0.95099825766272
H           1.91977947179864   -0.86593552115021   -2.86319713016410
H           2.02674852256229    0.62617654863624   -2.54039532296412
N          -0.05743731500339    1.30828789885160    2.62056192346893
H           0.35781759951562    0.30546838910429    2.49458062260998
H          -1.07645930285936    1.18019720790096    2.87182939927853
H           0.45021446333436    1.89377172357906    3.27397406747451
H           0.01501954912387    1.63393001399520    1.64209840182919
