    26
        -50.45332222  Gyration_radius:  2.73148649553 Dipole_moment: 4.601
 S           1.18391639129153    2.15579753276338    1.44162755572763
O           0.31117896537586    2.34073591938393    2.57449941434109
O           2.02064654093396    0.95948436281252    1.57050508601604
O           0.48104744319926    2.16956985744138    0.16243448362516
O           2.17650403805906    3.39751382506284    1.40536309211288
H           2.39100034497771    3.54106459664036    2.32285930228165
H          -1.02953034517715    1.58244122703762    0.70513967663208
O          -1.63078043631673    1.00765663798966    1.22785732926736
H          -1.52815982627527    1.36788643001981    2.11718369225630
O          -1.04588375036114   -2.83775193444469   -0.55723179150531
H          -1.58001676373162   -3.58301890805136   -0.83450596693578
O           0.26377375566572    0.31594738854223   -1.75777139132480
H           0.44843803982163    1.14806674957987   -1.28019167051607
O           0.96073692662617   -2.26663258617816   -2.30756036992629
H          -0.34251770741088   -2.74454013237807   -1.22954339919649
H           0.79656886265574   -1.31039589797668   -2.37335704975573
H           1.91049722569884   -2.38481591645964   -2.34903810200655
O          -2.26482760811999   -0.36780956839013   -1.19002894322429
H          -2.01519784923440   -1.26466479749093   -0.91147654432464
H          -2.43097601689343    0.13450082960814   -0.38369111157446
H          -0.71575370444768    0.24187262951681   -1.79765744576469
N           0.33375027709634   -0.76242974379083    0.70407246021805
H           0.32944493544817   -1.76545900206571    0.86920333845317
H           1.13830533599254   -0.21312465459429    1.15006161102617
H           0.38325760359196   -0.54825005850164   -0.32630317133709
H          -0.54542268830730   -0.31364479593231    1.04754993521648
