    26
        -50.44980528  Gyration_radius:  2.48754463679 Dipole_moment: 1.708
 S          -0.17672683910879   -0.97100196643725    1.57308784512021
O          -1.36946605855099   -0.36274113906037    1.03058578415638
O           0.12742906345604   -0.68053793022983    2.92876992208949
O          -0.25223208334521   -2.49876784247496    1.38618431203881
O           1.02419773905622   -0.56362689350805    0.68542174343913
H           0.76703464291032   -0.05961933013922   -0.18817097803028
H          -0.44093193425597   -2.66164359920030    0.41331917841597
O           0.52806894506147    0.66138232871096   -1.45865525122563
H           0.63848979587430    1.60284385354002   -1.17019436990765
O           0.76684051239245    3.03072065665971   -0.33498000135956
H           1.66528336543437    3.32272514851766   -0.17499732496204
O          -0.54693634020569   -2.79060877743965   -1.14084944504766
H          -0.66329649533466   -3.68535298649963   -1.46599203348656
O           1.78578302886165   -1.75668855315336   -1.88700734900462
H           1.48505450412658   -0.85918066744628   -2.09686690154148
H           2.22343245656647   -1.68499882150607   -1.03344414911375
H           0.30469195633067   -2.45604346220633   -1.51791909760035
O          -2.09420374976729    0.33843697235919   -1.43791073293919
H          -0.44044152943773    0.54214768222129   -1.61651383729504
H          -1.98559013908998   -0.05261948082810   -0.54872575468814
H          -2.61140828053078    1.13728124328567   -1.31906438570520
N          -0.16740236658954    2.07558095566636    1.98803656829101
H          -0.58239267004468    2.69327073767768    2.67626939568646
H           0.39989600685550    2.75487343220253    0.54900762894901
H           0.50656534636742    1.49405463460893    2.47536425824825
H          -0.89173886695307    1.43011381454336    1.68524496546479
