    26
        -50.46058566  Gyration_radius:  2.50840446172 Dipole_moment: 6.685
 S           0.97173565831949   -0.05852890598089   -0.29404622878573
O           0.58204080845347    0.05179513825291   -1.68383538371533
O           0.27246515161405   -1.29662853420954    0.33320585818731
O           2.38552758112086   -0.24908960602113   -0.07930457478574
O           0.46927700835725    1.09890711754128    0.49356793736850
O          -1.23408910835968   -1.64689966210250   -2.70926994017600
H          -0.53723122160358   -1.00289863048835   -2.47649236734941
H          -0.78418713748293   -2.46715476857118   -2.91593627975882
O           3.02440475362167   -0.65613912040051    2.38150274966426
H           2.85156596041041   -0.60801668775005    1.39954179384335
H           3.77129315976031   -0.07477388721626    2.53694330212027
O          -0.98126629625103    2.06511269172187   -2.60189902068165
H          -0.38417828845296    1.33180981769703   -2.36244755946199
H          -0.41822235013468    2.81204152619840   -2.80801599911829
O          -2.10544637473353    1.49559386205272   -0.18203055422465
H          -1.18285801576956    1.50687339563851    0.13131943415360
H          -2.03953904472286    1.79777360303131   -1.10459187145429
O          -2.15126787410944   -1.13277603501955   -0.24291921827508
H          -2.10485900128746   -1.37618347926001   -1.19049281481536
H          -0.74753003740086   -1.26450566082639    0.09815582554551
H          -2.31168620059818   -0.15166714597818   -0.22075382715582
N           0.51221282642552   -0.03295562639491    2.74532067512452
H           1.54462347270045   -0.28984663711155    2.80621668281278
H          -0.02280194292277   -0.88230248546460    2.56825735448769
H           0.17251092194042    0.46259787320260    3.56352555166252
H           0.44750558110438    0.56786184745846    1.81447848479415
