    26
        -50.45634894  Gyration_radius:  2.66553308201 Dipole_moment: 5.737
 S           2.20254281767913   -0.48719132978711    1.50099421763589
O           1.77056192837738    0.39263753561425    2.56567259724905
O           1.42183697142035   -1.72997303311573    1.45961482152443
O           2.27106964312983    0.13312443988210    0.19804406838247
O           3.68819981431471   -0.92312636577669    1.88029945821747
H           3.65260114249437   -0.94014226940312    2.83181225480624
H           1.68967290435206   -0.04766595989290   -1.38529354609993
O          -0.41675953791957    2.08956624051149   -1.50330918660942
H          -0.35756164959192    3.04164918122014   -1.58588761343285
O          -2.19926914644781   -0.44044968628746    0.65346851247775
H          -2.63676658892436   -0.67377537292119    1.47318268984884
O           1.01949639040259   -0.16670837704347   -2.09279163476247
H           0.52931509400618    0.67268312635890   -2.08143048111703
O          -0.32363469444588    1.22696937310154    1.20745117655836
H           0.02650452783442    1.54665911964577    0.36325994897431
H          -1.48181525878786    0.22106619157727    0.91348617975401
H           0.44641727242601    0.96452921938777    1.75656828943727
O          -2.97084894674952    1.20590183878715   -1.39382852979653
H          -3.24189833166970    0.63796821479496   -2.11658044988833
H          -2.84502002854002    0.63191024925791   -0.61498550366392
H          -1.37138903286845    1.86546308999057   -1.48091419565353
N          -0.19748926025972   -1.86667585606749   -0.52825317824397
H          -0.32904967474834   -2.80716029568626   -0.88160197549950
H           0.50579857919701   -1.86620502853527    0.29380556550159
H           0.22714245294065   -1.21695421993758   -1.27130958062379
H          -1.07965737764564   -1.46410003569208   -0.16147390498221
