    26
        -50.45379741  Gyration_radius:  2.75469263958 Dipole_moment: 4.862
 S           0.54095524565978    2.84703012575881   -0.40242217879986
O           1.15964028028289    2.92222735982091   -1.70183405724925
O          -0.90935851592034    2.65260855032051   -0.48180625592888
O           1.15549087330266    1.85442198343495    0.47428636652246
O           0.76727086488409    4.25094445916455    0.30965826597397
H           0.61159507975865    4.88381288402931   -0.38591074899982
H           1.62433855404041    0.77292454458288   -0.74079776108001
O           0.22653496499782   -0.32377208429446    1.72665048526090
H           0.62662367399070    0.54968974826358    1.55216610683770
O          -1.26057942333287   -2.69643497398379   -0.54808103307500
H          -1.48279431638256   -3.60314513932587   -0.76147294731068
O           1.55098000213838    0.22480035940073   -1.55371588695780
H           1.66389467383307    0.88102386879086   -2.25085702598877
O          -1.78355064288433   -2.13485700766389    2.04500554514781
H          -1.53635820116292   -2.55458290649076    0.38336593731046
H          -1.58234660722040   -2.76014535950845    2.74291805089147
H          -1.15427804557445   -1.39991001938358    2.15136186716834
O           1.39940498315297   -2.07667451132835    0.07897628575278
H           0.55406519458440   -2.40293311255337   -0.27404003502694
H           1.75717987409788   -1.48240076511001   -0.59198111737698
H           0.84048184171310   -0.97966298373194    1.32208544392423
N          -0.98925864593211    0.09755184963588   -0.63633362615152
H          -1.15232514157674    1.15861019859604   -0.62146966892402
H          -0.72156344907388   -0.16505431578082    0.34645307239168
H          -1.76937807244214   -0.46493438796521   -0.96390811589764
H          -0.13666503484013   -0.05113837479369   -1.21829694846064
