    26
        -50.44980539  Gyration_radius:  2.48706375979 Dipole_moment: 1.697
 S          -0.35224670512903    0.81370283699067   -1.63097958820465
O          -1.42991714064861    0.08185056890433   -1.00648171471537
O          -0.03971758905530    0.46837000987577   -2.97181293238122
O          -0.64770742374299    2.32406418362206   -1.55164555911059
O           0.91537893970222    0.65353200766251   -0.75737933270687
H           0.75581529116350    0.18469002369023    0.15827947644347
H          -0.83856882359393    2.52962692242738   -0.58738552924382
O           0.65554695627303   -0.46577706787307    1.48364144782341
H           0.89754788447049   -1.39987189201094    1.25852568981173
O           1.21761663931274   -2.85111992898334    0.52117549364520
H           2.14575751893013   -3.01585083704345    0.34949421659543
O          -0.93049500478284    2.75501049665722    0.95677378708597
H          -1.17414211990311    3.64351973717386    1.22316154899901
O          -1.98523147117579   -0.52983424206301    1.52862450866241
H          -2.38139927642685   -1.40210803337585    1.48359189965441
H          -0.31612132487118   -0.47746666584451    1.66511569726015
H          -1.95614114104292   -0.19434887171904    0.61100734673922
O           1.54710276368372    2.13692947106723    1.69677757334016
H          -0.03036253329195    2.57972328114877    1.32872195064088
H           1.38952360313856    1.22326019707871    1.98026401205721
H           1.97069387094389    2.06661760289989    0.83600406594465
N           0.09207442103068   -2.22290454787609   -1.82818044756535
H          -0.71119047933891   -1.66763616792590   -1.54638733756951
H           0.79080051792976   -2.70024861453959   -0.36605694655771
H          -0.24524290534111   -2.94484764039381   -2.45465097188571
H           0.66062550177101   -1.58888283950176   -2.38019833474269
