    26
        -50.45379747  Gyration_radius:  2.75438650536 Dipole_moment: 4.859
 S           2.70597487491007   -1.03679892196593    0.39825407863494
O           2.80378477332091   -1.26564496730556    1.81778648306050
O           1.92652925288426   -2.07304636100932   -0.28446996827861
O           2.21603802238162    0.29619841926205    0.05963705135196
O           4.17909891529654   -1.11889664583395   -0.19542231937856
H           4.56486358508142   -1.86168333308395    0.26055485841318
H           1.23062879346650    0.50357619218601    1.42128244622039
O          -3.02665861105227   -0.04517183905594    0.01403449003658
H          -3.96700150166766    0.07529839879328    0.14921306845522
O           0.09513111315654    1.18134532038071   -1.31558970521818
H           1.01220164355374    1.01153098491243   -1.02612403264814
O           0.57156651295136    0.27563339341110    2.11424710392066
H           1.08844449852131   -0.27870122111693    2.71007445356051
O          -1.27937451477771    1.98635598486964    0.83553772147130
H          -0.31145427809888    1.72047916851969   -0.59816109611323
H          -1.97675389384690    1.31950378887660    0.71484854144276
H          -0.71438085725845    1.65642507751880    1.54493474559440
O          -2.29441532829084    0.62831283821372   -2.50087741170259
H          -2.85346465779543    0.15735666423121   -0.93075481801565
H          -2.65422106378720    1.40120916658391   -2.93871966126649
H          -1.36063789223254    0.83272950512649   -2.31701197686332
N          -0.42427612265120   -1.10103438046342    0.01108057737188
H          -1.30306801721643   -1.60334140413034   -0.07672481221275
H          -0.38447172690435   -0.29118856110924   -0.65904659822987
H          -0.30730057635739   -0.69404419718957    0.96423277263381
H           0.46321703646258   -1.67640307063527   -0.17281600224381
