    26
        -50.45379674  Gyration_radius:  2.755549466 Dipole_moment: 4.837
 S          -0.22287210997922    2.00864768863308    2.11709058947790
O          -1.56883200995037    1.86807441399963    2.61313783873621
O           0.66685723768548    0.94919029541257    2.59974403342255
O          -0.15162776702887    2.13038986674805    0.66385574052143
O           0.34999154805305    3.37534035240628    2.69453473054037
H           0.02635169063231    3.39366110447319    3.59094879536239
H          -1.51035564878839    1.18278922216379    0.31328959772461
O           1.04830324382091    0.68988674487599   -1.25034871993061
H           0.78556634782385    1.42895358430460   -0.66887065729201
O          -2.13219447926386    0.42325648399856    0.36825778302010
H          -2.61116275220281    0.61329187641108    1.18313064256787
O           0.04849387946735   -2.77709743090067   -1.20259457039428
H          -0.09290803200371   -3.60087205940573   -1.66995008410275
O          -1.19899885058146   -0.45238252648354   -2.15056138012572
H           0.24224833058554    0.46487874432498   -1.77029046382879
H          -0.93404049078529   -1.34296164906799   -1.86391806793850
H          -1.83535853454042   -0.13948186645907   -1.49594999409247
O           2.35453352873925   -1.59090857674474   -1.96919470266735
H           2.61550488148529   -1.56304995596479   -2.89104231267469
H           2.12172609053921   -0.67733499786125   -1.72732137896435
H           0.92749668549878   -2.44428230339864   -1.48619715917974
N           0.22280669910124   -0.82907447128328    0.81116297010178
H           0.42522072713032   -1.82230331302736    0.88084692864368
H          -0.79492576232833   -0.65324707685912    0.66570250221270
H           0.50419931165564   -0.23407115693788    1.65932946288850
H           0.71397621553989   -0.40129299315082   -0.01479212433681
