    26
        -50.45634919  Gyration_radius:  2.66555191091 Dipole_moment: 5.744
 S           0.84916544381342   -1.82979260885582    1.80986447703325
O           1.05534210709710   -0.83237117515648    2.83803191792221
O          -0.57582609513418   -2.08808812650886    1.56787999322493
O           1.55390472050852   -1.57505564129853    0.57472886191122
O           1.43866154078064   -3.18677016220782    2.40312221019333
H           1.24940345653686   -3.09462579797947    3.33198116605057
H           1.28037882083517   -1.39449480031188   -1.08897449302380
O           0.86249460221926   -1.03662098059010   -1.90219476540803
H           1.16372074414053   -0.11253874467831   -1.92146811986609
O          -1.86280961648172    1.38627319381254    0.25897036853907
H          -2.44670406694633    1.62204204749966    0.98095914695167
O           1.50769020344598    1.58178913393831   -1.42536039136543
H           2.26389160922245    2.16879526214386   -1.44314228693644
O          -0.83611814812718    2.88033051002932   -1.79290104010451
H          -1.29763139036645    2.47115931619524   -1.03695485456842
H           0.71326346410824    2.13741635049230   -1.57459070551027
H          -1.32219199656984    2.63426338000840   -2.58135221352900
O           0.51469826815672    1.16171460254598    1.20818869993907
H           0.73927183768583    0.46202599370135    1.85897139233858
H           1.10951664202006    1.04768727536983    0.45277867863361
H          -0.94300517599631    1.32011117288664    0.67098955031471
N          -1.43219598349491   -1.14430644204838   -0.66111938564596
H          -2.16154365303754   -1.70441583113200   -1.08658933820165
H          -0.55942597795421   -1.08498234247869   -1.28522004623249
H          -1.76598438210940   -0.19289317194306   -0.41956805712963
H          -1.09796696423333   -1.59665242345903    0.26296924448335
