    26
        -50.45634908  Gyration_radius:  2.66578048291 Dipole_moment: 5.747
 S          -2.67541642833885   -0.11831599310104    0.41498055130931
O          -2.53653495545108   -0.97949882674558    1.56979950822804
O          -2.25368983771834    1.25909120425952    0.69853854477863
O          -2.05354609096414   -0.62078659653876   -0.78820619162305
O          -4.24057588381944   -0.03915056734561    0.12399904302155
H          -4.60709649434808   -0.09449009988496    1.00125647958773
H          -0.92197751162862   -0.18236682647112   -1.97310036217862
O           1.56181168126646    0.82819904863807    1.52513948486042
H           1.54898874961794    1.07430149142946    2.45087487330283
O          -0.06435451944769    0.13658907239553   -2.32902157849287
H           0.55320158284194   -0.57943197644209   -2.10327002206057
O           1.46918994112468   -1.81238093177346   -1.16733326591986
H           1.66909795739932   -2.74386665050403   -1.26288364226609
O           3.46987440686896   -0.43051153100725    0.01752818352362
H           2.24844352604528   -1.39720285505595   -0.74015384011089
H           3.88359245919271    0.24430916982360   -0.52273091827340
H           2.90365594686607    0.03204778670448    0.66349481708191
O           0.06107006234822   -1.23790349507207    1.23888400546863
H           0.97305533249113    0.01003405062759    1.45911734310735
H          -0.90522074747113   -1.19097363911179    1.40529729399684
H           0.17735000701849   -1.54627641078199    0.32851069272577
N          -0.02949602392177    1.90602181404963   -0.40929537431372
H          -0.99133796934660    1.68622935435127    0.03425556827532
H           0.02147525374026    2.88101749084846   -0.68036749939354
H           0.68501493434978    1.66405818134970    0.30201323525781
H           0.05342463129429    1.25125773532191   -1.25732692991084
