    26
        -50.45634952  Gyration_radius:  2.66537408035 Dipole_moment: 5.736
 S          -2.01256351914620   -1.24647813688390    1.31778482239679
O          -1.65033808850682   -0.65070401176758    2.58599470413854
O          -2.63471963639809   -0.27541168453221    0.40895471188804
O          -0.94398178149205   -1.96722239247696    0.66528277662249
O          -3.14846103581004   -2.31320743861125    1.65218585258027
H          -3.60572761308158   -1.89446808817121    2.37501792811770
H          -0.09747583145401   -2.02819190512882   -0.80364638423050
O           2.50454385447385   -0.73054427322299   -0.05430526864778
H           3.25922472330745   -1.04770740034059    0.44237484016503
O           0.42433404615632   -1.68190152348180   -1.55974012347445
H           1.27724396192546   -1.44878328098275   -1.15570304589601
O           0.27832548285925    2.31188755097554   -0.14797111409904
H          -0.10297105740137    3.07765500173822    0.28329147317190
O           0.52842584137377    0.45924294256910    1.61423842616568
H           0.37056309036847    1.61546040531095    0.57826081322239
H          -0.26136628473105    0.05824124270734    2.03761097114132
H           1.02204423814324   -0.26127624359764    1.19635992792445
O           2.83792866840794    1.79281131630637   -0.96944192124193
H           1.97556170025227    2.12679837250529   -0.65854444910211
H           2.72080354896271    0.17977914097517   -0.34862524311005
H           2.84429910782891    1.88556065273765   -1.92328268182397
N          -1.11623138756178    0.42635037028998   -1.53902705586870
H          -0.44191996693509   -0.40002826997025   -1.66961236285158
H          -1.80167361153451    0.12122375410174   -0.75979049736706
H          -0.60520128844510    1.25228327907833   -1.17589208245854
H          -1.62066717161191    0.63863058985778   -2.39177501734774
