    26
        -50.45634848  Gyration_radius:  2.6654853231 Dipole_moment: 5.731
 S          -0.08486935743876   -2.39888782016464    1.25695319237684
O          -0.12260845962433   -1.79982352571802    2.57378485341670
O          -1.35548787634565   -2.23785923099510    0.53916974268974
O           1.03444514403770   -1.98854171164651    0.44083267824223
O           0.07639136941775   -3.96563416149621    1.50302094251647
H          -0.39744842438512   -4.08733085115320    2.32001556655960
H           1.38771383733856   -1.30493493454577   -1.07048496289340
O           1.33188096977869   -0.65214703849649   -1.80172265978956
H           1.73778761665226    0.14543280527403   -1.42216474585755
O          -1.63924045264519    1.65954654152765    0.14986336936944
H          -2.40362623665180    1.81966862058494    0.70469776017837
O           2.10206821469970    1.51020938819539   -0.30767701697204
H           2.88519024524675    1.88340328287996    0.09755582386777
O           0.20177697407996    0.63178353743353    1.61973629600728
H           1.00336282879376    0.59201489046124    1.07811475163240
H          -0.94064912410115    1.26865316062448    0.76553587339066
H           0.09203807880833   -0.25051254135608    2.03532510168206
O           0.22926791519898    3.37580967420862   -0.87968847532988
H          -0.51791557395232    2.89434966472964   -0.47742155498787
H           1.49114025179307    2.25672470842074   -0.48535256960631
H           0.02363137305275    3.48087050586288   -1.80978593740643
N          -1.24546719748935   -0.55318121888375   -1.39519914879740
H          -1.31805273091984   -1.30390107520236   -0.61960416683818
H          -1.51611144749336    0.34768755400309   -0.95937809970233
H          -0.20953151322130   -0.53231856275218   -1.68002968569386
H          -1.84568642469485   -0.79108165169047   -2.17609690801973
