    26
        -50.47039527  Gyration_radius:  2.41537780031 Dipole_moment: 4.745
 S          -0.59480799939373   -1.39254360641474    1.35551234605799
O          -0.86177063344692   -2.00468431780952    0.06374119450000
O           0.79771644279843   -1.10572448519891    1.59273677234144
O          -1.45824554990581   -0.22684349219502    1.56358520976987
O          -1.02309794213493   -2.45135985924994    2.45101332839725
H          -1.91852026399907   -2.65401880054209    2.20283422669716
H          -2.26624492652876    0.04977759305931    0.14751485585385
O          -2.52427062009511   -0.03142081156643   -0.79931280785194
H          -2.33794878680132   -0.96172824089766   -0.98137158295641
O           1.17945720641090    2.25206197183839   -0.18904968900165
H           1.46314853687056    3.16506582310585   -0.13031668637902
O           0.79058414619136   -1.35288151294258   -1.92672149346415
H           0.21787487330430   -1.76411606081531   -1.24462232473464
O           2.55221238055010   -0.27409409074712   -0.27288723878633
H           1.61326386423438   -1.10110588275520   -1.44336405455003
H           2.31689925887341    0.66339206487743   -0.27973596388319
H           2.06963898768813   -0.65860783674477    0.48235137373234
O           0.42617129351594    1.49109713899561    2.17938673002857
H           1.02476263989537    0.75408499887897    2.35967303401445
H           0.86919072977921    2.00094645543354    0.73121168763758
H          -0.42673297715572    1.03158169120775    2.03654421087908
N          -0.38550990492070    0.94454873948417   -1.99808336873901
H           0.16511035025739    1.54782774777964   -1.35569126818842
H           0.14074217083252   -0.00909329472190   -2.09059122644961
H          -1.31915241397690    0.69723240677362   -1.55478609407442
H          -0.51047084284473    1.39060565116863   -2.89957117084679
