    26
        -50.47039612  Gyration_radius:  2.41527180915 Dipole_moment: 4.731
 S          -1.44673158147833    1.30982529037223   -0.56441403718258
O          -1.99975025419901    0.63911741203764    0.60128435107309
O          -0.24569031180530    2.06026105517226   -0.29591339961669
O          -1.29147431600983    0.36872118361016   -1.67694478138898
O          -2.53226735168447    2.36205069604206   -1.03224410873199
H          -3.31833289701952    1.83123727953397   -1.10131436973760
H          -1.62776514411263   -1.14072634264402   -1.09715790348159
O          -1.82660265889476   -1.86408241498292   -0.45881731184686
H          -2.32022168870300   -1.39918387958600    0.22911847656103
O           2.40575623604323   -0.67941991613116   -0.49849744166664
H           3.23442601161294   -0.96777137655432   -0.88273314155220
O          -0.25480277878825   -0.13462718546173    2.46484016192871
H          -0.98522730777164    0.22593885768815    1.91818936365999
O           1.22572155137171    0.88017838669870   -2.21040220097050
H           0.29722139134242    0.56997286721275   -2.23382969321756
H           1.14931794045784    1.70753667435392   -1.71659432931743
H           1.96496280590462   -0.10622363434665   -1.19385280970869
O           1.68958625271002    1.33047392535046    1.42819255149069
H           2.15682752834149    0.70506892111896    0.85810508104449
H           1.03992673771342    1.77361610518133    0.85145072897906
H           0.49483538551833    0.49173739775547    2.32481743762863
N           0.45693581960534   -2.02278517330207    0.85414552886056
H           0.19499786571238   -1.29911458609734    1.63047355815289
H           0.71288074178950   -2.91951846834796    1.25118506481399
H          -0.41419854451955   -2.10019508841734    0.25032610244733
H           1.23966857685038   -1.62208796625001    0.30058712177390
