    26
        -50.47039600  Gyration_radius:  2.41533885522 Dipole_moment: 4.736
 S           0.65063154099253   -1.87081995946118    0.45303570803204
O          -0.72579218767174   -1.84163193976034    0.92111526704140
O           0.79166327578856   -1.68013899781075   -0.96892798976209
O           1.48217540799770   -0.95137086600317    1.23434077154422
O           1.19745874339652   -3.32331352960063    0.76197149510857
H           0.98946389857050   -3.43149911266264    1.68361724013441
H           0.47365768277909   -0.09057737875395    2.21800713365580
O           0.68463254311531    2.12654904630720   -1.22957719153201
H           1.10836077861267    2.92192281847740   -1.55421136105050
O          -2.41940554012336   -0.31100504397910   -0.45932902034650
H          -1.92237328351124   -1.00257983627704    0.02753341254310
O          -0.35695183601027    0.26328922959013    2.61186988585598
H          -0.96834691638167   -0.47574798922276    2.49789341445313
O          -0.72750276476991   -0.04648224417358   -2.47708029032812
H          -0.16697060352751   -0.74460154575852   -2.09055474691014
H          -1.99798188455571   -0.28147380437642   -1.35106260057565
H          -0.27635657492736    0.78543460574703   -2.28048529602839
O           2.53324643644404    0.35513008999397   -0.78355657566598
H           2.32572916323259   -0.00926076589833    0.10112805727222
H           2.26645245285787   -0.36877982693495   -1.36604597318403
H           1.42599537567460    1.47736865877136   -1.04116388395718
N          -1.27547441156400    1.73502728764414    0.62330005667273
H          -0.51556246534794    1.99722255279083   -0.03530851490298
H          -1.86327208708020    0.94231583769738    0.15335809966197
H          -0.86378268582929    1.28766930511002    1.49490666943051
H          -1.84969404817920    2.53735342852027    0.85522624283457
