    26
        -50.47039586  Gyration_radius:  2.41535363008 Dipole_moment: 4.740
 S          -1.45583120131152   -1.24275569181606   -0.68265218344056
O          -0.41313321039038   -1.31467132522220   -1.69358599015537
O          -1.04485931558334   -1.70692838187585    0.61886855133236
O          -2.04969127792152    0.09648797334735   -0.64642608254669
O          -2.60817460340301   -2.21779278842730   -1.15769104993273
H          -2.77322587148364   -1.92581857545018   -2.04758729576791
H          -1.15254667674225    1.05983453490780   -1.64318968816887
O          -0.42348955459773    1.35525204283421   -2.23601013697441
H          -0.16001793452444    0.52983834720840   -2.66290546258182
O           2.09700630399286   -1.03189133217409   -0.83569541240949
H           1.23673629944326   -1.28451160585402   -1.23379584046180
O           0.66219086653849    1.40602448174722    2.02183297021366
H           0.72274924578304    2.03216036743221    2.74419058613852
O           1.39801327414315   -1.35529072186284    1.69605737466253
H           0.51266574399664   -1.64561730900993    1.40815512597995
H           2.03266201088349   -1.32397730775917    0.10466610019881
H           1.28279579392550   -0.44895496324779    2.01166135041909
O          -1.77871224131573    0.51839601432487    1.92876476605261
H          -1.65363457173259   -0.43253869750148    2.05027242974113
H          -0.29515954847947    1.10710384835250    1.99659095198405
H          -2.03134786989235    0.57071029005053    0.98437079697100
N           1.59321097221475    1.48296944972171   -0.53879229173764
H           0.78107455785312    1.59841589183613   -1.21440681724206
H           2.33442631621288    2.14598301520485   -0.73440979832132
H           1.25782451762206    1.57557534941768    0.44040330786989
H           1.92846797482040    0.45199711381286   -0.67868627181105
