    26
        -50.47039567  Gyration_radius:  2.4152525227 Dipole_moment: 4.742
 S          -0.88274963215238   -1.62991229035423    0.83210346384881
O          -0.88039359499317   -0.63619828756604    1.89363258879894
O          -1.65123237529001   -1.24978745479810   -0.32665350950656
O           0.48606732727570   -2.03330185904235    0.49883881995565
O          -1.58333605492492   -2.91867455551704    1.42588669681920
H          -1.08835204697868   -3.07441231820771    2.22286743451310
H           1.51012634869133   -1.04368118278232    1.33607607302434
O           0.87018425014304    0.90572717922414   -2.21788118263920
H           1.32137994822993    1.07294259774578   -3.04610770867439
O          -1.10035595534485    1.91265802512131    1.13772296018553
H          -1.15531681385919    1.01506371843958    1.52967257004957
O           1.82168963144979   -0.29876556551934    1.90010176508329
H           1.07061338995188   -0.16344273776984    2.49228402408013
O          -1.83761045697064    1.24813796005002   -1.31513468819652
H          -1.56596406202702    1.83573574726773    0.27101793892794
H          -1.00604975559541    1.26640335427867   -1.80766650269614
H          -1.94878830353669    0.32363973791559   -1.02542080465928
O           0.33917372660659   -1.63537404843940   -2.08989613743853
H           0.70790607069876   -0.08377735245374   -2.18817432288178
H           0.60842299753756   -1.90326572476904   -1.18732934647668
H          -0.62497847243708   -1.64016971448622   -2.02191987437266
N           1.34589506501744    1.76470400712693    0.32538150941358
H           0.33016394334035    1.95227488628091    0.68340281075989
H           1.93461629441536    2.58334471628726    0.42781661473745
H           1.69815599334770    0.95686588975977    0.91924184611532
H           1.28073253739868    1.47326530220619   -0.66986302874642
