    26
        -50.46907343  Gyration_radius:  2.47634394686 Dipole_moment: 2.893
 S          -0.21027516790240   -1.70610003411179    1.42372633506734
O          -0.05747332208269   -2.71030729155457    0.39814656290474
O           1.06603996817668   -1.19469436213282    1.91020624518427
O          -1.11233851688590   -0.62503357332092    1.05378992357810
O          -0.90099518770735   -2.42898112986852    2.65619393703604
H          -0.38369010129617   -3.22519111111612    2.71150418023959
H          -1.72487311542337   -0.56891037133395   -0.46909952646052
O          -2.02591355936923   -0.46624324403996   -1.40363756570114
H          -2.91958726203092   -0.80866573628920   -1.43857568781231
O          -0.91598535689309    2.07480813904855    1.17004086935484
H          -1.22982043261510    1.16097882305886    1.29116803272773
O           1.73116327887805    0.85992794396231   -1.56003549489865
H           2.46147747504755    0.86651596905470   -2.17956162945911
O           0.52491180984202   -1.41388275457190   -1.83231359130411
H           0.44538409408513   -1.98353252800279   -1.03835222027700
H          -0.38982015751822   -1.15185055064919   -2.02051121560421
H           1.30038932836760   -0.04273351688701   -1.65400463472451
O          -0.85829855729416    2.04376034323414   -1.49773298134831
H           0.05924406797031    1.78496274118742   -1.66334377718815
H          -1.38180669608723    1.23559808131158   -1.62507281200733
H          -1.02381250676897    2.25013417822125    0.20491122083114
N           1.53801508642752    1.22805687610280    1.11910637528720
H           1.76311881643341    1.15956915557003    0.10618153197684
H           1.40229750325987    0.23687645169470    1.48946923596398
H           2.26527949952305    1.71252459897319    1.63223220364113
H           0.57736903186661    1.71241291250976    1.21556448302272
