    26
        -50.45021856  Gyration_radius:  2.46524223313 Dipole_moment: 2.803
 S           0.70888183622217   -0.00612558389354   -1.97836791478899
O          -0.23151611396850   -1.09388211832174   -2.16451967599531
O           0.09828670035297    1.16596898567602   -1.36082348383933
O           1.91389436865709   -0.42718436342453   -1.29189541686381
O           1.14034643996588    0.47145964787364   -3.42325060580945
H           1.43357821939458   -0.33597031535374   -3.83231518150849
H           2.22539147285253    0.80019461087474   -0.11716088864567
O           2.12353736794804    1.53447020400770    0.51759190773406
H           1.55631057144221    2.16331605005491    0.06195867090813
O          -1.69165711443450    1.82749091412632    2.00522242773432
H          -2.29960962615939    1.57081009294120    2.70028247485329
O          -1.84069720534572   -1.42002051843808   -0.15443864244633
H          -1.33897443531099   -1.44458999076210   -1.00726468580825
O           0.42512622972109    0.35488846231686    2.20377268140817
H          -0.84716790759817    1.30787020150981    2.15267670313400
H           0.41517258919734   -0.52437673513772    1.79719537886215
H           1.13087271026316    0.84769308643810    1.72306321686453
O          -2.17543155570984    1.05478992546122   -0.34349613906967
H          -2.18515458365677    0.01308077747312   -0.22105222274508
H          -2.04070191968405    1.45725617811852    0.60546654346853
H          -1.27823436004774    1.19866052835658   -0.84364442130888
N           0.75611739875776   -2.07822633903172    0.74120036084697
H           0.47936406704797   -2.96638709490446    0.33465040095834
H          -1.16829722164850   -1.62823286481374    0.51382174448932
H           1.49884097384004   -2.29486741304873    1.39909937255393
H           1.19172109790123   -1.54808633808126   -0.01777258495056
