    26
        -50.43330518  Gyration_radius:  2.85260737589 Dipole_moment: 4.869
 S          -0.70172456996783   -0.65481271743369   -2.48385024972133
O          -0.91683294211587    0.71140562791208   -2.10229653107448
O          -0.45713611124613   -0.91376652386674   -3.85595165715610
O           0.48378259287892   -1.21219904825313   -1.60716478115977
O          -1.87240077286619   -1.53505500815032   -1.98427274491854
H          -1.86678349050116   -1.41162375010186   -1.00215156330257
H           1.07331817224427   -0.46496279679094   -1.29661536299941
O           2.04642600950058    0.68311003116788   -0.76272025911472
H           2.94590144676612    0.52350943079180   -1.05388982429576
O          -1.28019785689948   -1.31300561127711    0.54570440400826
H          -0.48849028297862   -1.81664042204339    0.32655040994067
O           0.55504400829496   -0.28778240165060    3.61550902396246
H           0.35102151806865    0.27232784555241    4.36596474856335
O          -0.00923306895365    0.85073554322441    1.22017835484543
H          -0.93889184613075   -0.38960646706071    0.74452446952300
H           0.29872675956598    0.53546006298596    2.09613081464900
H           0.76660053627541    0.88172838607016    0.64769455830926
O          -1.55971504010818   -1.95623677382259    3.20193840427625
H          -1.66464534211792   -1.73578908801341    2.25646003054979
H          -1.62208834432630   -2.90960339460485    3.27305875014148
H          -0.17053725743104   -0.94165686843375    3.56436698675718
N           1.02182697454137    2.74218075461532   -1.99794939297374
H           1.72304936107314    1.52183450365920   -1.23378896744451
H           0.78917066776250    3.55314279927782   -1.43887955495284
H           1.33061178988016    3.06323359591628   -2.90665068802501
H           0.16319708871713    2.20407230023790   -2.13189936842296
