    26
        -50.43330526  Gyration_radius:  2.85241816922 Dipole_moment: 4.864
 S           0.24216736987534   -2.45142907098559   -1.00559924647005
O           0.22078078764982   -2.35085356600845    0.42544751200792
O          -0.24690638091407   -3.65250660781397   -1.57818932321375
O          -0.54882103772169   -1.21523629000227   -1.58091926177476
O           1.66612473396065   -2.15871896977658   -1.53608327895978
H           1.85920116597262   -1.24119355117277   -1.21852619306178
H          -1.20608483728171   -0.87394839356872   -0.90724321002978
O           0.37400969549816    3.63273554159854    0.35933416499351
H           0.61180959769822    4.20744686550917    1.08851053910149
O          -2.26634090881031   -0.27775931956308    0.12747068342416
H          -3.14719947183945   -0.28633139529341   -0.25115721639066
O           1.63920976701573    0.37397941046925   -0.91593655087483
H           0.95515505953075    0.45371661739595   -1.58988637335981
O           2.66070498841530    2.92421451188875   -0.94318944037678
H           2.95364391730313    3.11850621215820   -1.83442734912240
H           1.19799058533188    3.48837267986188   -0.14746371515523
H           2.49258689141686    1.96310468536226   -0.90406301487038
O           0.09723740760700    1.03055532955395    1.06967559353822
H           1.15084749751153    0.51560372417280   -0.04978302139999
H           0.07912554656010    1.99407190313158    0.88845256997075
H          -0.77545726991210    0.68857468200945    0.84143860405903
N          -2.05928376664482   -2.04481724034244    2.03813587345033
H          -1.90017746041843   -1.70200807542166    2.97705104595443
H          -2.26343811237711   -0.94119809163370    0.89537588186920
H          -1.15310458306641   -2.31909125657659    1.65287947595581
H          -2.63378117238086   -2.87579033494831    2.09869525071792
