    26
        -50.45942129  Gyration_radius:  2.43912514727 Dipole_moment: 2.695
 S           1.36063643506281   -1.23443689814920   -1.13896632423923
O           0.69777880092837   -0.39177845675863   -2.13355069797015
O           1.79880007096799   -0.47699729365300    0.01246254599860
O           0.55927164884453   -2.39301973994919   -0.80666615870702
O           2.67578157644974   -1.77975243826869   -1.83144598041128
H           2.32800858789512   -2.37410863485809   -2.48795892870151
H          -0.94300571570726   -1.74458588516403   -0.80106087892532
O          -1.83182638019711   -1.32161429822514   -0.80459469589290
H          -2.16549932636319   -1.43911048449797   -1.69595853526465
O           0.05516099465001    1.95212648065516   -1.52620445137262
H           0.35681589293850    1.02515840392355   -1.86717957293275
O          -0.73918297631046    1.42756109693527    2.12105120160688
H          -1.03236015151696    1.66751013144858    3.00013703255564
O          -2.00924597935108    1.29791174377914   -0.27076853388651
H          -1.69897599336183    1.42004481060159    0.64809537653608
H          -0.88618922245996    1.76225729126885   -1.08176716387111
H          -2.02527386353203    0.32581867551599   -0.42397857200092
O           1.42122056536210    2.07646460000748    0.57333897719162
H           0.68025230359273    2.14646406307559   -0.70178399927349
H           0.72305957481460    1.99947787181323    1.25179459475791
H           1.76711718422245    1.16573561377965    0.45874690231877
N          -0.21712066073932   -1.13242736584486    1.93485160798920
H          -0.96245600532579   -1.60746996466895    1.43894960243147
H           0.05835074610614   -1.72156953499404    2.71062928446715
H           0.57322060545726   -1.08440311887738    1.29166499481459
H          -0.54433870241087    0.43474332113386    2.13016236280961
