    26
        -50.45259545  Gyration_radius:  2.64372734641 Dipole_moment: 7.874
 S           0.22649214424650   -2.58814747709744    0.08636860331277
O           1.66934913568656   -2.46427402934331    0.05627070951082
O          -0.31244787434988   -3.80373703228398    0.58477754621698
O          -0.36136881948794   -1.38379801049512    0.76350691519544
O          -0.28327876937992   -2.42215878367080   -1.41774639592269
H           0.19534147699794   -1.65955506689322   -1.78621086559467
H           0.59442718227527   -0.34117279595439    1.48404434370092
O          -2.39126224858622    2.29134556802559    0.41556072410511
H          -3.09769909629614    2.22732673250284    1.06031211120082
O           1.18629817581911    0.35902997055240    1.87465332855998
H           1.56392921309129   -0.03356292949035    2.66307126343021
O           0.66157898448693   -0.02692873893351   -2.32067695991892
H           1.08612828033883   -0.01259072804584   -3.17909585375126
O           2.48537702143627   -0.07388947725606   -0.52519019171688
H           2.21498457388256    0.35874024919577    0.29916005714005
H           2.34571491588768   -1.03645305576090   -0.33177550187599
H           1.40644175233546    0.05372188355473   -1.64061578388218
O          -0.18714377417600    2.66635772549470    1.83836346148357
H           0.28922331060372    1.81099120155037    1.91336316583609
H           0.45665919340672    3.30449485616047    1.52736521069984
H          -1.57514549202039    2.49679012438753    0.93392119778058
N          -1.65781950545866    0.06879186936148   -0.87409270416935
H          -2.41390304213538   -0.44745222859952   -1.31163308934935
H          -2.00152475161161    0.95252173330430   -0.41683718663257
H          -1.17635004992226   -0.56825577012752   -0.12691528697787
H          -0.92400193707412    0.27186421986347   -1.56994882838484
