    26
        -50.46306556  Gyration_radius:  2.54545065134 Dipole_moment: 3.930
 S           0.09121236006964    1.26397907227847   -1.85982529547106
O          -0.47547436551542    0.05446540443973   -2.45604303253362
O          -0.40729824084929    1.48579973565344   -0.51673943620112
O           1.53781194654248    1.27096830244078   -1.94200812106144
O          -0.42187663511218    2.47932075113135   -2.73138760222972
H           0.09197373678669    2.37181861130571   -3.52477816891832
H           2.40602662488061    0.19081868073408   -0.99717255089637
O          -0.67922134356233   -1.87460255665505    1.16075456417695
H          -0.74381502766473   -2.37086906045698    1.97746157102001
O          -1.14742992851684    1.15200460137443    3.15826381591229
H          -1.26528587923603    2.09536709067840    3.27522347232253
O           2.61830897526951   -0.55675190345841   -0.39130214724826
H           2.31432487035001   -0.26259499929734    0.48026824479067
O           0.78145087152274    0.28101600550821    1.51275352501867
H           0.29602212708444    0.63720605533329    2.28756665098727
H          -0.10680142031288   -1.08033863287053    1.36059631638285
H           0.43278787085860    0.80557938399104    0.75800308071366
O          -2.43736225342431    0.40055344047717    0.92286820834260
H          -1.85894490780766    0.88803264807239    0.30879029364761
H          -2.15883637025003   -0.52164126689983    0.85627529321752
H          -1.76153383858698    0.89327898396078    2.43063122755873
N           0.57685992176982   -1.95526414682331   -1.22216422079415
H           0.71890384508689   -2.78914671026111   -1.78085432427566
H           1.50483304539012   -1.52074670401293   -0.89672841670592
H           0.09000387439519   -1.18800288541203   -1.79194891833602
H           0.00336014083683   -2.15024989114152   -0.37850403929969
