    26
        -50.44974533  Gyration_radius:  2.55346799358 Dipole_moment: 5.641
 S          -2.32403984458844   -1.24197932684885   -0.43630335970540
O          -1.78276824616758   -0.25538567420640    0.47418661482391
O          -3.65116511775041   -1.67261991164083   -0.21490024677008
O          -2.19788996398982   -0.69220119195343   -1.88119409348714
O          -1.38025032355248   -2.47334246745001   -0.42333015045855
H          -0.43290723616214   -2.21436368208795   -0.23259637688593
H          -1.40357041636073   -0.09689744040289   -1.98381939533248
O           1.07136309045195   -1.94039022842851    0.21824808936292
H           1.46167108769590   -2.77116570195688    0.49453850030408
O          -0.25478791696139    1.00482359188034   -2.19910727521683
H          -0.49731351214097    1.53805874174266   -2.95804707957975
O           1.73867126844338    1.88626403395217    1.03458767253443
H           2.35014904698460    2.62287873866640    1.00367238032258
O           2.16210308157613    0.27177167000273   -1.02823987746129
H           1.91903459336319   -0.59920432200495   -0.67560702731067
H           1.43461912827817    0.51214756551059   -1.62218495309684
H           1.98533586626018    1.28863603821459    0.28179632787675
O          -0.77398060111698    2.20063674854817    0.01028595320482
H          -1.27496860847713    1.43103585096524    0.33525566797041
H           0.07647930810192    2.18696026783311    0.49352736169231
H          -0.44733245550531    1.56580594865478   -1.37663918736049
N           0.45196732394816   -0.48012618982861    2.25817386238020
H           0.42833085428513   -0.76204072639640    3.22871491646432
H           0.88904161518864   -1.39365774784348    1.06954735131845
H          -0.50141838166348   -0.31552445253078    1.94212803980159
H           0.95362634987236    0.39987986760381    2.18730627460913
