    26
        -50.44922927  Gyration_radius:  2.46933738487 Dipole_moment: 5.761
 S           0.01436647847422    1.10197602182306   -1.93751541199258
O           0.61541667169115    1.51199746484728   -0.68791151682833
O           0.68394172203419    1.47881568966223   -3.12389658627005
O          -0.19995804409501   -0.44226721238835   -1.86898239216622
O          -1.44762899726602    1.59220684297222   -1.97020883620256
H          -1.89872589361878    1.35557725342994   -1.10914097819113
H           0.70888769840353   -0.93384836679497   -1.85706534565969
O           0.09381934234428   -1.05612540427505    2.25838566313980
H          -0.22397066694462   -1.51241364545764    3.03859582725728
O          -2.60913199531454    1.06174266672521    0.29351616938785
H          -3.29750046272910    1.71561354910136    0.42671105494959
O           1.95478140225589   -1.70192845615374   -1.59617839906922
H           1.72637230566764   -2.59790914727179   -1.33779733286546
O          -0.53539732117990    1.56062047515132    1.72636567798222
H          -1.86234259839454    1.29273718268700    0.93663639596954
H          -0.24033805980474    0.69608314015057    2.07094273526216
H           0.00712533545297    1.71305663884177    0.92932434813093
O          -1.59473411668924   -1.53456793549282    0.25300837595200
H          -1.13533345214823   -1.32109581808770   -0.57401166616102
H          -0.50109159955571   -1.32776713346595    1.51709484645790
H          -2.25256845488787   -0.83328350144906    0.35336330094297
N           2.45331783271546   -0.33783726428590    0.55914444388682
H           2.02340561852197    0.51428758261746    0.20468359332349
H           1.87720117621501   -0.66531438003824    1.32880341989595
H           2.27133065800198   -1.22491603274994   -0.75406792639399
H           3.36875543025400   -0.10544022031839    0.92020053910943
