    26
        -50.44736608  Gyration_radius:  2.49885533746 Dipole_moment: 6.189
 S          -1.86869784548645   -0.00975693553855    1.07837314627256
O          -0.74201757861371    0.38343825620567    1.87338346343975
O          -2.88042145760818    0.96877647579214    0.86552032886059
O          -1.32083195335506   -0.44754211009892   -0.33825278636201
O          -2.45347398442351   -1.32004105644132    1.60393716871655
H          -1.68633381647307   -1.87674879756930    1.98230718555354
H          -1.21844855360882    0.44714276931655   -0.81351681157943
O           2.49198973792373    0.43628611085633   -0.33574967941765
H           3.41922747158247    0.57415408119059   -0.53203392918123
O          -0.45799819979494   -2.71015189013168    2.36032592765998
H          -0.59294693813638   -3.63424528663624    2.13656464698855
O          -1.11868118968076    1.94362056860423   -1.14094120863978
H          -1.94341733859270    2.21046372840542   -0.71888311228689
O           0.70755184433187    2.28253151396940    0.66584103775955
H          -0.38833464771754    2.22013797142235   -0.50559588790160
H           0.23793625318072    1.73255126788983    1.31940266049936
H           1.46672498937859    1.73726431367770    0.39275167648010
O           0.98197847006640   -1.80088355256483    0.34725851252036
H           1.64528735970099   -1.09354845737015    0.37604364415344
H           0.22646915676022   -2.36719540324318    1.73170450603429
H           0.18983464739818   -1.38144227222502   -0.02000033769220
N           1.01885606770892    0.33528617527470   -2.58742526153146
H           1.42283047946220    0.45436204311340   -3.50814264114014
H           0.52261864949207   -0.54776805881572   -2.57637024608191
H           2.00999629526401    0.39518736429405   -1.20499941990580
H           0.33030206122318    1.06812119064210   -2.45150258322723
