    26
        -50.44265313  Gyration_radius:  2.45659750668 Dipole_moment: 9.838
 S          -2.19755558084066    0.83699891209090    0.69871948388392
O          -1.53059216061748    1.91882312281301    1.41176400727879
O          -3.31782632608198    1.21602915446355   -0.09664894267842
O          -1.04451417410512    0.39004099081945   -0.40000311978657
O          -2.34884180125739   -0.37132767374525    1.49725073129439
H          -1.52198864010875   -1.64462092281484    1.22737432603242
H          -0.37058802909948    0.06665189458901    0.23366264646007
O           1.00077413070594    2.20712134994835    1.37117091848821
H          -0.00510198995529    2.20722126815498    1.46344536612978
O           1.99299695077629   -0.76487924023356   -1.50495191726179
H           2.62851329220431   -1.23969088162785   -2.04127748733507
O          -0.90305550435843   -2.42407589081392    1.06467152075306
H          -1.28010654020912   -3.15126770628277    1.56073661898319
O          -0.32929056678470   -1.98809065830146   -1.57162454940001
H          -0.49874896902417   -2.36775965725091   -0.68760465165811
H          -0.94125130465873   -1.24202560086943   -1.61850705599932
H           1.12670244366397   -1.25474816059342   -1.60080882393257
O           1.01340812278405   -0.53877929592228    1.10836358174275
H           0.50407927914188   -1.33947187089381    1.32752950723209
H           1.59547221593393   -0.77304960838830    0.37188647246175
H           1.25908349185642    1.34835668978883    1.73200059517850
N           1.05713037730939    1.80157537567730   -1.14832233821216
H           0.06475633097883    1.50072874190999   -1.20551128152241
H           1.26367943447780    2.58136425814699   -1.76188091386381
H           1.15679529058391    2.06034581053535   -0.06386265509432
H           1.62607023668526    0.96452960880459   -1.36757204917566
