    26
        -50.45212785  Gyration_radius:  2.45277375923 Dipole_moment: 5.978
 S          -2.04325655788262   -0.18700469815519   -1.04172044437066
O          -1.75746380415103    0.69960168875761    0.06792508616107
O          -2.83811395863665    0.36735951851002   -2.07652491640954
O          -0.68643464848521   -0.69947819979962   -1.60306731984567
O          -2.64071099665889   -1.49269359952073   -0.50605760522471
H          -1.90285148071015   -1.88367536528390    0.06063949421291
H          -0.13654447638642    0.07967409819013   -1.94412723242522
O           1.76126559447027    0.93056237068497    1.65169068318347
H           2.60563444343531    1.08647270588245    2.07523766711037
O          -0.72179848575969   -2.32964397400917    0.97570090403539
H          -1.01710635335392   -3.06065090287437    1.52261802373284
O           0.67855805149867    1.33052043311051   -2.32559261389473
H           0.17909435081146    1.81740843902365   -2.98440581036153
O          -0.65999447731281   -0.15314211627402    2.36834684978600
H          -0.63805882997540   -1.53598801338722    1.58965495952548
H           0.21618469456414    0.26616358418900    2.30644606742624
H          -1.20003244473386    0.29419548666703    1.69168848456762
O           0.25672200970946    2.49051575007272   -0.05227141573975
H          -0.59401815759754    2.03163118901273    0.06671996029688
H           0.84673545202620    2.10439765758034    0.61910814915270
H           0.61670719797604    1.86600576005798   -1.47641247754005
N           1.97468925966602   -0.89505564287408   -0.26528013120962
H           1.90320636702108    0.22800775834516    0.95130007048257
H           1.08826994936486   -1.38989935391470   -0.23981414962298
H           1.99591073249025   -0.37840045349120   -1.13735875325736
H           2.71340656860623   -1.58688414048278   -0.29444353975253
