    26
        -50.44131467  Gyration_radius:  2.68865921512 Dipole_moment: 5.680
 S           1.07475437160836    2.40482690803788    0.77496931169520
O           2.06630547295020    1.56935938248761    1.40031317753868
O           0.72313698005012    3.61122021678973    1.42312701660283
O           1.49589924259817    2.71375267036124   -0.68184179398837
O          -0.20113457091194    1.51796599382354    0.55692539990219
H          -0.07435301207516    0.61785239547603    1.00636331789939
H           1.65138020909858    1.85362635089572   -1.16122648338144
O           1.86265023774926    0.41788922453694   -1.85639423383034
H           2.62081552558880    0.42227607033083   -2.44341086507902
O          -2.38327194947213   -1.74166851266478   -1.52247359483589
H          -3.07896453262170   -1.73777294440776   -2.18096900721650
O           0.04119581717164   -0.75213548461554    1.70024748988672
H           0.14861077149218   -0.58473421256571    2.63822142380886
O          -0.94754838352991    0.50160636901348   -1.96129350206739
H          -1.83466044581809   -0.95000681924226   -1.71052015811728
H          -0.94694669985350    1.00899165454500   -1.13924220355730
H          -0.01496686809773    0.35832635486084   -2.17090970425834
O           2.45501161805378   -0.81718550455499    0.32902017909420
H           2.11021206763682   -0.16344943328017   -1.07308558528271
H           2.53741304451409    0.02311080647193    0.82668565285966
H           1.65686035559120   -1.22287747700045    0.69410940870522
N          -2.28527701388355   -1.85446336238079    1.33000854441138
H          -3.06492388061647   -1.30925063888929    1.67590809295048
H          -0.86827902357032   -1.20304834870163    1.56765174529661
H          -2.38880816643705   -2.80277033394345    1.66822469590511
H          -2.35511118723277   -1.88144131534821    0.30959167503918
