    26
        -50.45448799  Gyration_radius:  2.49104938872 Dipole_moment: 2.175
 S          -0.70708690167033    0.21046887464535    0.56710395540606
O          -1.61099135106141    0.47175465537024   -0.54967360817218
O          -1.51899007018848    0.45180317899745    1.84675534852314
O          -0.23935613806918   -1.17745890519929    0.55183762585771
O           0.42711291313109    1.13899315615742    0.53693819196159
O          -1.84359317147649   -0.94955202707800   -2.65558999906721
H          -2.64867870044588   -0.65344071347034   -3.08363886491629
H          -1.83271400294013   -0.51605913952405   -1.75355259257289
O           1.97433299733914   -0.51340030322839    1.98774067852463
H           1.37183573371472   -1.17239415292204    1.61551762163482
H           1.77178473489644    0.27631064244842    1.46019537613280
O           1.42721714597979   -1.51173658577529   -1.36454568059640
H           0.79934774237089   -1.37514819378044   -0.59464137434936
H           1.38139757788278   -2.44588511206610   -1.57876137977086
O           0.13219775537647    2.11829509077717   -1.80839383067189
H          -0.82827851942671    2.17481400300155   -1.74157990478387
H           0.39396190875206    1.83235920193116   -0.88691533064932
O           0.45475291597058    0.00672498719810   -3.11590822115184
H           0.38490707194262    0.94910341940765   -2.62351636579108
H           0.97110108367603   -0.60783645717771   -2.45199921909421
H          -0.49615627811874   -0.38618645711547   -3.08857029700695
N           0.08693568775843    0.33716927232141    3.84416528403913
H           0.27176718084739    1.24146257699932    4.25619214924445
H          -0.17650532302931   -0.30841150785779    4.57597711606509
H          -0.88809711214331    0.40875056377214    2.66811193958413
H           0.94179513893687   -0.00050007781753    3.38675138162094
