    26
        -50.44131464  Gyration_radius:  2.68867461505 Dipole_moment: 5.680
 S           0.63449790417867    0.29355527499177   -2.65529768151452
O           1.33791155901585   -0.94576764623242   -2.45138820475372
O           1.19109342421934    1.22838014083279   -3.55837345354124
O          -0.82977752910021    0.00190686086248   -3.06261544457732
O           0.44770242019546    0.95275845816646   -1.24370319330100
H           0.96011205125921    0.42336578808740   -0.54694038526020
H          -1.24563731343139   -0.58300091137958   -2.37065873239710
O          -1.45569977403221    1.12814876903066    2.76363362260290
H          -2.13009424003280    1.69679807438187    3.13691424331963
O          -1.83643889614770   -1.51171473622364   -1.19704886831376
H          -2.40428681464695   -2.19965199244987   -1.54878498189528
O           1.74806029907545   -0.31450940841943    0.55138247269126
H           2.67472967314550   -0.27472306666520    0.30835439160670
O           0.44101767050892   -2.51693881290434   -0.52227594656962
H          -1.00996661273209   -1.97092328375443   -0.85238020754341
H           0.88217570108176   -2.14768372538757   -1.31573221986944
H           0.81410988311263   -2.00398526336998    0.20750858119730
O          -2.01229486479722    0.96427626773681    0.12750956257013
H          -1.22687052756145    1.25816694722373   -0.35200729243064
H          -2.19000328668441    0.07254374361542   -0.20021194058530
H          -1.68422962950335    1.03244403707669    1.81403402587491
N           1.39930604256778    1.14317969183798    2.67706201570881
H           1.62520020865917    0.24612778082631    1.39905894336389
H           1.68832452593807    2.10779361820716    2.57329480913832
H           0.38177319199536    1.13491267476575    2.78383144160691
H           1.79928490369657    0.78454072913935    3.53483443287455
