    26
        -50.46868370  Gyration_radius:  2.55922987147 Dipole_moment: 4.211
 S           0.26576280620733   -0.40941722031325    0.72193532746221
O           1.57872819979394   -0.54108283310873    1.29306036141854
O          -0.65293061144111   -1.49051136363772    1.05582725357341
O          -0.41525297732405    0.87412143171383    1.28963654461490
O           0.31721673896699   -0.22271696173736   -0.74230877760536
O           3.53324761258646    1.09321226323914    0.67083774430765
H           4.34819772540000    0.75372157422126    1.04220337438839
H           2.83983570614346    0.43025426832681    0.89427311672162
O          -2.93263262068913   -0.18220503106574    0.86338289596398
H          -2.72669545792247    0.69290256000989    1.20320076456797
H          -2.15786999404959   -0.72922802569621    1.12577728274557
O           1.92612695811355    1.76933893103405   -1.56958631626659
H           2.77763980464203    1.54633433380468   -1.17059133519577
H           1.36037177752074    0.99057391933975   -1.41285319840287
O          -1.62735354113373   -3.28158379955777   -0.63426778132061
H          -1.13179592773435   -2.75787753072228    0.03438800279261
H          -2.24131035930062   -3.82527309295323   -0.13728913759347
O           1.26622131679352    2.72813558555403    0.81038587210408
H           1.39738922831771    2.61545245085415   -0.16243152608162
H           0.23400067859952    1.63881755526701    1.14792314433551
H           2.11216575118436    2.44159518412199    1.18233047500023
N          -2.04131354104826   -0.81618486578078   -1.54100559268639
H          -1.02465888285415   -0.51943190461970   -1.32592886939228
H          -2.35698985403046   -0.49774756397194   -2.45011857943702
H          -2.03619229443119   -1.85902331912380   -1.45029900302516
H          -2.61190823231230   -0.44217656519945   -0.73848202298518
