    26
        -50.46571673  Gyration_radius:  2.4385463218 Dipole_moment: 5.132
 S           1.52575318299778    0.73068395272839    0.03693024444936
O           0.83056982508337   -0.15850144336425    0.98782176164594
O           2.84864414767740    0.25907237198690   -0.28232734223373
O           0.64436301592176    0.62024773453714   -1.30277331001628
O           1.39621394164451    2.11290447730713    0.40910620773112
H           0.32969103252191    2.34659783693624    2.37222032096488
H           0.68782560879519   -0.32042189150992   -1.61032947055591
O           0.80000476772439   -1.92345028187652   -1.93782914250384
H           1.25925294007251   -2.08288628440759   -2.76416899096342
O          -0.37530531063241    1.68974143917240    2.38473410428587
H           0.06948287866414    0.87447041261263    2.05180987604142
O          -3.15924574046739   -0.00513883608167   -0.16946315668661
H          -3.71672948404124   -0.15454993654438    0.59615888939384
O           2.43993847446659   -2.28787354519561    0.04106875089804
H           1.92547333089310   -2.26297604984094    0.85321927751948
H           1.43497444267758   -2.19426074378909   -1.21030550158669
H           2.78281306512028   -1.36716039298220   -0.05805610975626
O          -1.15750523092206   -1.66883919919275    0.07292072223416
H          -0.77447002179328   -1.99808971532676   -0.74837480852478
H          -0.44260948298744   -1.14766395459219    0.49836615096026
H          -2.46144047763256   -0.71589492803186   -0.13609427724356
N          -1.39278736785248    1.95064409838198   -0.02938468110240
H          -2.19271074216908    1.25636721538654   -0.12566267082063
H          -0.58944804786279    1.60917531103594   -0.58786322800917
H          -1.65436724253432    2.88343138222255   -0.33194616621464
H          -1.05838152534265    1.95437096041180    0.99022254010883
