    26
        -50.43331560  Gyration_radius:  2.83645131521 Dipole_moment: 4.676
 S           2.16934417586734    0.37492130455603   -1.48711734698023
O           2.17035307583340    0.94656566811512   -0.17101148609875
O           3.42215999315140   -0.01774934002492   -2.02233401103053
O           1.17494457113510   -0.84690287665227   -1.47832305399685
O           1.44579625567972    1.32241483275269   -2.47348644977206
H           0.53682911125434    1.41208266857420   -2.09386613142262
H           1.13909852704970   -1.26914545059269   -0.57187701124156
O           1.03088112395675   -1.97494119325602    0.85889260995968
H           1.41093495466271   -2.85375395513866    0.80931451699321
O          -3.51358481413996   -0.48925578064525    0.81290512228301
H          -3.91713291087297   -1.28621967017307    0.46705684584905
O          -0.92763639767725    0.98717853374084   -1.43090603287989
H          -0.92454956613156    0.11905260428692   -1.84680681731453
O          -3.61286959257662    1.45397151286933   -1.08077379243056
H          -3.68490188244337    0.21513623045753    0.15317607273112
H          -3.76364529868993    2.33992387443147   -0.74771214111293
H          -2.66827473331183    1.41034585004724   -1.32558321114942
O          -0.88043382787323    0.16820698448520    1.04049393524815
H          -1.81214006492505   -0.10970856686136    1.13727492655062
H          -0.34046601667502   -0.62781107977680    1.10030214357567
H          -0.81570831212920    0.80106572498279   -0.45138244990870
N           2.55148976753622   -0.39440849455487    2.26825166277994
H           2.53575245328901    0.28479329930340    1.50453184552117
H           1.63578561810142   -1.42375394161590    1.46206838522360
H           3.51923568382122   -0.58477181037295    2.49485955392864
H           2.11873810610870    0.04276305106571    3.07205230466214
