    26
        -50.46571670  Gyration_radius:  2.43846997297 Dipole_moment: 5.128
 S           1.18232837859647    0.31211479871877   -1.16895061795969
O           0.11242220526605    1.15004299318356   -0.59334889472326
O           2.46826594660087    0.95863384137948   -1.11658528780407
O           1.24603546840732   -0.95561764418757   -0.18253214439369
O           0.78964854508406   -0.26230410255392   -2.42655389881159
H          -1.22731223029085    0.48017788410598   -3.08390705117284
H           1.50915899558119   -0.62193723779315    0.71233889290834
O          -2.47434234604491   -1.55444878220214    1.21367922755652
H          -3.36250151370466   -1.19337597730918    1.20577140574600
O           1.87487727529595    0.10009905233616    2.13856580216277
H           2.73637891317137   -0.17212665775122    2.45935437918360
O          -1.77346014368789    0.53404404280462   -2.29184637393318
H          -1.17591691222047    0.96188649946412   -1.63359400377116
O           2.07931136723397    2.42248891753237    0.99656454001639
H           1.18865676918715    2.73393495719246    0.81042982536339
H           1.98310825142521    1.04503979236044    1.82050909223298
H           2.36856618096834    1.99515369161136    0.15470087288110
O          -0.89612481103426    0.45474639029371    1.76677847181140
H          -0.58783404723262    0.78377176010880    0.89478827256130
H          -1.88775842867169   -0.81653473062497    1.53713367624600
H          -0.09189276710459    0.24513852556772    2.25551803098739
N          -1.21854045407354   -1.74683868591985   -1.09937092078117
H          -1.30483559920211   -2.59764564731745   -1.64594321603480
H          -1.53625140618150   -0.89111947538130   -1.66328395554726
H          -1.77815429045981   -1.78947298172821   -0.19580261819924
H          -0.22383332691891   -1.57585123391926   -0.86441350653170
