    26
        -50.45053746  Gyration_radius:  2.58594420958 Dipole_moment: 10.313
 S           2.54648063993232    0.46720129339880    0.84598719172518
O           2.56348608815768   -0.96815832308236    0.64960645285709
O           3.46276129188939    0.97714993743463    1.81383645313210
O           3.01184431826111    1.11032955863777   -0.57042166270439
O           1.16865440256551    0.96371501278554    0.96990432696497
H           0.61255405734984    1.28539175839166   -0.41752770003098
H           3.94218536128597    1.20649322472189   -0.40197003892997
O          -0.98000749613468   -2.07712361228431   -0.50189959931323
H          -1.08296914063133   -3.00112530663949   -0.72951506213139
O           0.21605822588086    1.45197164822854   -1.32829530923109
H           0.55548133807375    2.30629261341697   -1.59632193419946
O          -2.78257479473068    0.76817733620185    1.59337771791539
H          -3.49425310615878    0.36594994310386    2.09271577879084
O          -0.65395335045238   -0.66631487989860    1.97621340359196
H          -0.66336691890336   -1.34701084369528    1.28905285376303
H           0.08988875923609   -0.07312803694490    1.73765721254048
H          -1.94482147723004    0.29568666549909    1.87845722873341
O           1.20465142128493   -1.20574876045130   -1.51925366833409
H           1.79880979255756   -1.19615517301886   -0.72276476442413
H          -0.09022329173466   -1.79045005210007   -0.89374190638005
H           1.07360825904497   -0.27447577098926   -1.74050007970121
N          -2.13351773842376    0.28625056350092   -0.90482606824623
H          -1.27499544831118    0.86108808065123   -1.10947379475378
H          -2.83012062782174    0.40062361631054   -1.63226211950567
H          -1.81042997182364   -0.71062988583931   -0.82970328425151
H          -2.50523060316496    0.56399939267299    0.05166836212383
