    26
        -50.46571669  Gyration_radius:  2.43846761657 Dipole_moment: 5.130
 S           0.37041198784226   -1.17216003171615   -1.16286250522639
O           0.94852718147842   -0.87355226599749    0.16179901075398
O           0.01940458618412   -2.56191060603044   -1.30329433086620
O          -0.99897753581419   -0.33050879529812   -1.17982938548036
O           1.13884550503075   -0.58136804056897   -2.22412529971822
H           2.99630205094969    0.41569172133938   -1.44700274708077
H          -1.57636823753440   -0.68772152164557   -0.45855455782220
O          -2.37166709051135   -1.34120023658134    0.81849680633388
H          -3.17174678958213   -1.79179039653595    0.54277727472151
O           2.75467151041313    0.84414946452310   -0.61831696886343
H           2.22046326376118    0.15601129032338   -0.15502883066672
O          -0.39156808197899    2.95970289105595    1.04447678606973
H           0.24955031814113    3.39591294641829    1.60836403874913
O          -0.48712402990720   -3.08690454336420    1.19189189102521
H          -1.71859787401522   -2.06115739616013    1.06555480544146
H          -0.27315719363080   -3.08019197516033    0.22787659199336
H           0.25374526983505   -2.63133487512764    1.60232876834164
O          -0.52781172409772    0.49359936442828    1.90028564129628
H          -0.52789679293094    2.05615877994216    1.44246357505487
H          -1.38046071740890    0.05433238315606    1.80194563219603
H           0.08775552030337   -0.00990592610717    1.32476407841231
N           0.47029972697665    1.98856752972794   -1.25301003231561
H          -0.10595548450493    1.14068605621489   -1.40411609330548
H           0.10733370939957    2.49672573069786   -0.39195018699681
H           1.46320397672789    1.63429219339946   -1.05299898088973
H           0.45081695478112    2.57387623900062   -2.08193499115270
