    26
        -50.45448803  Gyration_radius:  2.49105405606 Dipole_moment: 2.171
 S           0.02169496976044   -0.69142507425602   -0.62207346766007
O          -0.13941757924113    0.67262817368905   -1.13071843746536
O          -0.42345938653062   -1.68550985095843   -1.70310768168610
O           1.42487428011558   -0.98563743491104   -0.34473713735646
O          -0.79238870654613   -0.89471057077192    0.58017759072402
O           1.05700576923672   -1.09459098546212    2.33636727429064
H           0.22485430637402   -1.02696929463432    1.78621335728304
H           1.63400402027341   -1.62386083731118    1.77325131973218
O          -2.73252749130878    0.73988609551376   -0.31264367368901
H          -1.99177806586654    1.10332136564291   -0.81785063918791
H          -2.28515343721054    0.16539736365589    0.32967713174017
O           3.28796639138324    0.73316438472047   -0.05402844701452
H           2.56543213827099    0.09772267266380   -0.32934753311818
H           4.10878120391808    0.24024793626551   -0.10264013042818
O           0.22737072833407    2.35537426335915    0.76583735726837
H           0.05225952930868    1.69766456682427    0.02945018672767
H           0.50970586828707    3.16440000043183    0.33408294341072
O           2.02575778787060    1.20153711151268    2.08995251292089
H           1.61244646050389    0.24107591686804    2.29612160844895
H           2.66963144036089    1.05711623734327    1.30018130740298
H           1.25038523301562    1.74172797016418    1.65165640641540
N          -2.96097480882794   -1.45505591900141   -2.00454770199967
H          -3.14871483794089   -0.62139989405829   -1.43552642541142
H          -3.47783910454553   -2.23504840456005   -1.62225575709830
H          -3.27226173423325   -1.28875721365714   -2.95174433220499
H          -1.44765496476090   -1.60829860907863   -1.84174762204826
