    26
        -50.45053741  Gyration_radius:  2.5858860772 Dipole_moment: 10.313
 S           1.93785289427278   -1.91018492210301   -0.11941114153162
O           2.62479341027806   -0.76185352863827   -0.67493849213672
O           2.40192969019703   -3.18757771345148   -0.55443287236236
O           2.22800681898390   -1.86594855318514    1.47753374651820
O           0.48059419484456   -1.72575926508941   -0.17123277862948
H           0.00969332198543   -1.00481723925903    1.09217955970204
H           2.98713388966047   -2.43637291656471    1.51591765532815
O           0.13359351958706    2.21989691417801   -0.76207972003054
H           0.48791357414004    3.06116985859898   -1.04999416095258
O          -2.99723823324088   -0.13926196905742   -1.36723501268499
H          -3.50351753665833    0.21867786848947   -2.09741064419061
O          -0.30701660757507   -0.48483229220360    1.89455932492735
H          -0.36148958578419   -1.12685697212601    2.60290216764968
O          -0.51273609920337   -0.22928034850486   -2.11169575994484
H          -0.13062573981891    0.62637326243567   -1.87198321416226
H          -0.09534720338753   -0.87486856515489   -1.50253837137736
H          -2.07712722879392   -0.31107481893583   -1.72809897909465
O           1.79164380272065    1.12625251878634    0.85718032969829
H           0.83705243346246    1.81317827123114   -0.15618712805302
H           1.28081897191892    0.61309798963712    1.49681135868256
H           2.21688510521244    0.44752107613124    0.26895047280421
N          -1.90690363848075    1.20235081221972    0.60896463257098
H          -1.38369485994575    0.50197253592857    1.19639150451900
H          -2.48723816387491    1.80034192984609    1.18614304348200
H          -1.17944461191299    1.75287522374305    0.08792936615876
H          -2.47553210859007    0.67498084304718   -0.11822486689139
