    26
        -50.46571668  Gyration_radius:  2.43849572982 Dipole_moment: 5.126
 S           1.00754625909946   -1.35942604674578   -0.01139957223517
O           0.87640392740131   -0.21551100662386   -0.93459036481625
O           2.37099996028209   -1.57386943382535    0.40008902806976
O           0.18471503136556   -0.89567831039612    1.28956813949098
O           0.27676661967842   -2.50574628361531   -0.47782641844476
H          -0.63137469008617   -2.14430686065446   -2.50008845938908
H           0.63939280794347   -0.09723342835370    1.65949032520884
O          -0.94603810297742   -1.23353321471343   -2.50428580917986
H          -0.19827597808007   -0.73365089240225   -2.09885171251830
O           1.46171687690537    1.25362145669847    2.09561974282396
H           1.88236135143753    1.14962570485066    2.95084022373712
O          -2.79506352684451    1.48135729079008    0.01618129669543
H          -3.15951566057656    1.89990901399806   -0.76563776881381
O          -0.23711050360338    2.01863027751913   -0.01832432882714
H           0.18072293852744    1.23799085018536   -0.44218604547259
H          -1.84619236955088    1.78246713438291    0.06393702669017
H           0.19408647374814    2.10005959511279    0.84020332691264
O           3.21895372915856    0.87734091920766    0.22209855950342
H           2.19979725086887    1.22114214711988    1.41747290807677
H           3.08604329452723   -0.09952791798786    0.27772406150455
H           2.81095827858093    1.12488851188660   -0.61285810885037
N          -2.13893624266639   -1.06854515569261   -0.16303566529972
H          -1.31188890098291   -1.16301881863617    0.45420757066320
H          -2.82639152941685   -1.77903204131719    0.06646862684116
H          -2.52758351183385   -0.08369605987537   -0.06128681818931
H          -1.77209378290883   -1.19425744091496   -1.16352975417734
