    26
        -50.44112152  Gyration_radius:  2.58345805037 Dipole_moment: 4.741
 S           0.45706590156986   -2.47640816923958   -0.79506151592423
O           1.64507176466879   -2.17579345579732   -0.03908757067194
O           0.54627917919617   -3.47770761520445   -1.80756085299466
O          -0.63050202320484   -3.03345712862035    0.25872496763337
O          -0.16970139534189   -1.21139185316402   -1.26863695552557
H          -1.36964252623054   -0.62155802236043   -0.30165797350448
H          -0.91082785931199   -3.82640822757082   -0.18611897322066
O          -2.03497956737476   -0.20664324059008    0.29517690699926
H          -2.88988653192096   -0.36770484524061   -0.10599869168322
O          -0.45679710064307    2.61875265785035   -1.96692045087752
H          -0.14233168634912    3.51039957820116   -2.12221088618729
O           1.43652012010655    1.40038733796445    1.08736599062038
H           2.34959758881822    1.40755320905503    1.37764208409364
O           1.23883221805049    0.81389373269984   -1.37405064775497
H           1.37627208082282    1.04872961937625   -0.36971687867910
H           0.69294297928221   -0.09727231161716   -1.37482637679731
H           0.58761487363925    1.52339710787578   -1.73670590140033
O          -1.17643146654798    2.35172901892580    0.52123144996860
H          -1.58291316259919    1.46051063727172    0.52405862675171
H          -0.31959656714931    2.24296133903241    0.95317817090681
H          -0.86253904937290    2.60803512515297   -1.05342018089401
N           0.39893438866799   -0.75425047694449    1.96609341261847
H           1.00549407114384    0.54116205705647    1.51298983479797
H           0.85990528193763   -1.40631401259064    1.32354714503285
H           0.54695965218759   -1.08063672350228    2.91179824540057
H          -0.59534117405064   -0.79196534801541    1.77016705130205
