    26
        -50.45448789  Gyration_radius:  2.49099869672 Dipole_moment: 2.177
 S           0.62084356935096   -0.29789169198270    0.62607165706991
O           1.72197577588317   -0.21846577028057   -0.32978731385982
O           0.03287130267192    1.02763980179306    0.84235766236449
O          -0.39879040710272   -1.24842833593816    0.17654315913432
O           1.22685663823142   -0.79875508157979    1.94394942854997
O           1.11963817496182    2.31160447296505   -1.08564121664657
H           1.98069608223567    1.89160088245298   -0.97458866090936
H           0.60750404087859    1.95915478077899   -0.30276326920878
O          -1.69306466774313   -0.26308136380216   -1.80220712593788
H          -1.20884165769210   -0.63740474607769   -1.00781146353587
H          -2.02675664679681   -1.02039976420258   -2.28772889296923
O           1.65742410685788   -0.99616257246248   -2.75870242477445
H           2.57004354920063   -1.01551173847192   -3.05166083232010
H           1.68630481565176   -0.85278333426221   -1.76854937777228
O          -2.30297377873353   -0.01019529694527    1.67558334603062
H          -2.00021047888463   -0.75718578620328    1.14072831044511
H          -1.68663029246124    0.69464832923796    1.41785901171776
O           0.12743685303072    1.00836597443578   -2.98027494345887
H          -0.71016346404440    0.56289384355007   -2.55007488725627
H           0.52017502872249    1.64791506574886   -2.22396912504660
H           0.78923520894479    0.22250385242574   -3.04314914006149
N          -0.57769515717734   -0.64698710597287    3.76125028395896
H          -0.75259276105361   -1.50147035102747    4.27211829743460
H          -1.40308484480488   -0.41554388916387    3.19626565177024
H          -0.41277602505728    0.10093921824910    4.42086702411731
H           0.51257505491532   -0.74699940325165    2.69331485116510
