    26
        -50.44023244  Gyration_radius:  2.54321668586 Dipole_moment: 6.127
 S          -2.39191751688113    0.53604630786837   -0.56770818802136
O          -1.16666781862484    0.34695949287628   -1.29503205245433
O          -3.60311593059253    0.41449927008965   -1.29351739041112
O          -2.36227325447786   -0.45652766239317    0.64598959429965
O          -2.36055089314486    1.89771870238982    0.16345242125530
H          -1.60101959659604    1.84525727407524    0.81560545013419
H          -1.78416632564562   -1.21561518971717    0.37714483237947
O          -0.46374739450758    1.63758778675814    1.89377477134310
H          -0.90394633607831    1.63508874125483    2.74615793225724
O           2.58923990951354   -0.10526439026188   -0.19237748245172
H           3.49566194394246    0.17492849529413   -0.06322382829559
O          -0.83897487563338   -2.43905982287794   -0.10603971303379
H          -1.43252733132867   -2.99990266211558   -0.60852943040825
O           1.36498371244632   -2.11882819849807   -1.54627979644740
H           1.80504677142166   -1.32664597978361   -1.18373565896578
H           1.96240119343412   -2.85384561833038   -1.39439594614553
H          -0.09451680570825   -2.21522656057363   -0.72249283691098
O           0.71211838751100   -0.71553234355013    1.70731783414884
H          -0.02927588541226    0.74496725051136    1.81423452429297
H           0.15713937317901   -1.39435088800872    1.30963342989917
H           1.44758954180111   -0.56243674093170    1.08437480066047
N           1.08235019281827    1.95232108787614   -0.74205910530262
H           0.79300697697054    2.42129027480066    0.10848969013346
H           1.28768706574835    2.65766814519886   -1.43771073792000
H           2.05872349000934    0.72349992216079   -0.44092569262092
H           0.27675143577301    1.41540329590239   -1.07214742139117
