    26
        -50.45667203  Gyration_radius:  2.56007233134 Dipole_moment: 5.744
 S          -0.04973732150977    0.26014274233663    2.67600306831348
O           0.94708680854023   -0.31688463401798    1.77219900456191
O           0.39715603667743    0.48577026480360    4.00966501173685
O          -0.33552525038424    1.73694947434975    2.06028971879835
O          -1.32655155974040   -0.43208463856554    2.52396890086881
H           0.81306822198819   -1.60294956883565    0.80148486503111
H           0.11029706136267    2.27187351241202    2.70844028405095
O          -0.60968009214090    1.79122919828466   -0.75580421777278
H          -0.83883300413761    2.28779982857424    0.03546133223544
O           0.57806125583667   -2.30748274807556    0.14317864510240
H           0.68493802207935   -3.14356117077832    0.59757909268598
O           1.60191336386132   -0.94064800425465   -2.06489005635088
H           1.39041912586566   -1.61103399096424   -1.40027176130233
O          -0.83971914435628    0.11155762407491   -2.95760003463571
H          -0.73271037171925    0.42606961596328   -3.85632233862505
H           0.75639603729464   -0.69700892930875   -2.47614081367049
H          -0.80956490323076    0.89315884433952   -2.38582897704072
O           1.83005171871255    1.11452264110521   -0.32914818631053
H           1.97053611393015    0.41470039542008   -1.00337553724596
H           0.38377046475711    1.61984941966849   -0.65053061222152
H           1.67206566740095    0.64050811814931    0.50918276118467
N          -1.53899899077651   -0.60724421546196   -0.01258609278332
H          -0.85338218892892   -1.34980456453110   -0.23779099331414
H          -1.19680045645830    0.32365391645816   -0.38066553876522
H          -2.45133014299988   -0.82934252142053   -0.39676932361717
H          -1.55292646186894   -0.53974062972405    1.07027179908249
