    26
        -50.45354955  Gyration_radius:  2.53298309611 Dipole_moment: 7.425
 S          -0.94738377246845   -1.92736161097672    0.74164709601512
O           0.08586401859205   -2.67440657526383    0.05309717608455
O          -1.60791873681184   -2.57213306590749    1.81963759217125
O          -0.39392652971472   -0.58799819169026    1.13397458903664
O          -2.04894577352158   -1.54628296641144   -0.34259468000347
H          -1.57305907888993   -1.24993612862698   -1.13773443354051
H           1.27640404971930   -0.78802476545325    0.81222822808998
O          -0.81272953623842   -0.28123497284725   -2.42193437550911
H          -1.06130910694765   -0.52639279581136   -3.31391499755861
O           0.19847983124444    3.27455808856166    0.59217267173757
H          -0.05310353881564    4.02810608775487    1.12757661347907
O           2.24208444080676   -0.69860330331900    0.66813630772974
H           2.61308451450376   -1.54634408152171    0.91993693901377
O           1.38852753121566   -1.45042458884435   -1.84637271381927
H           1.97296293603131   -0.94253488926879   -1.26265325939484
H           0.94659844812133   -2.08158731753207   -1.22674530632561
H           0.10677878479802   -0.67358673685380   -2.27227736076508
O           1.20716718128203    1.43047281847904    2.18148712399857
H           0.68363351388708    2.65479276827874    1.19921674881495
H           0.51450302784372    0.75311541686383    2.16673198867032
H           1.96221923662676    0.99564094644962    1.76127695911081
N          -1.35886024102174    1.30704403833534   -0.28285831096844
H          -2.35694794119475    1.42316943578875   -0.14237670890754
H          -0.82166258402098    2.18131676437636   -0.04585912592121
H          -0.99229953151603    0.51060095009580    0.36449643479470
H          -1.17016115373067    0.98803466542734   -1.24629518603421
