    26
        -50.47071321  Gyration_radius:  2.41582388895 Dipole_moment: 4.149
 S          -1.35528181215192   -1.31659536516532    0.73440203874719
O          -0.23833783640429   -2.14956731383818    0.32164699579663
O          -1.03318156803566   -0.36332074530766    1.76876263501383
O          -2.00075710471339   -0.67861667844366   -0.41529323384176
O          -2.42906779485915   -2.30100489855915    1.35447910068324
H          -2.43867081559027   -3.01413646800804    0.72522385078305
H          -2.10906406378607    0.92197173601408   -0.03994080633155
O           1.51443750077316    0.52263223707126   -1.95486589106568
H           1.93171844349923    0.68956075840276   -2.80064780273482
O          -1.97882441125174    1.80049680020710    0.38672818710149
H          -1.98042781476013    1.58256333334365    1.32570046006755
O           1.35106108870286    0.78680392856557    2.06560918671854
H           0.48404673252036    0.35287176609335    2.19872441619934
O           2.22044666010689   -1.03555132383977    0.36132890783402
H           1.88630013733783    0.09789953634203    1.60451995419615
H           1.39496146640045   -1.55552972862240    0.40566972823054
H           2.19630123576592   -0.57108642046069   -0.48583074374868
O          -0.25266769229336   -1.36115601411095   -2.23395648713992
H           0.05623731932531   -2.00924293157719   -1.58323012177086
H          -1.05220287341968   -1.00757657892932   -1.79362059797964
H           0.81981285137055   -0.18029586971709   -2.12235567021861
N           0.61047384446424    2.18356842140746    0.01771473010637
H          -0.45005132661323    2.11637356460434    0.08155732571598
H           0.99241982767568    1.68912241369996    0.91272403202657
H           0.94812568204540    1.64959933043234   -0.80615056320198
H           0.91219230390664    3.15021652040559   -0.02889964118431
