    26
        -50.46103457  Gyration_radius:  2.73001272697 Dipole_moment: 2.745
 S           0.18799872023734    2.47066245138934   -0.38639697518652
O          -1.09840525042784    1.92249688574898    0.01942939164064
O           1.27972020992891    1.95736855735242    0.41878130997160
O           0.40088909582073    2.30703682896071   -1.81782738715293
O           0.13448684559514    4.03408766263120   -0.13159389085377
H          -0.40075700412175    4.33902325948643   -0.85746237570511
H           0.68209732857441    0.82117134307758   -2.32837361712452
O           1.88843822898593   -2.43917567100077    1.86967645157851
H           2.43584218653877   -2.14927162426689    2.60103135996141
O          -1.67784727197748   -0.56319036746086    0.83185343902373
H          -1.60376975959421    0.40804957917614    0.89588166742859
O           0.80963829189260   -0.13864076428431   -2.55957795746790
H           1.37583743981893   -0.15011448141053   -3.33222214921337
O          -0.70198449323617   -2.39940104247112    2.65665188268352
H          -1.14283517976419   -1.71025116760836    2.13051080260502
H          -1.28147977207758   -3.16256083966723    2.64168069900058
H           0.98127286412323   -2.53702032191802    2.22828618611425
O          -1.94041534406352    0.00068085933130   -1.76525971063331
H          -1.16064895333115   -0.20886280581309   -2.29330555648610
H          -2.05216330239623   -0.68227727612959   -0.06472339110578
H          -1.74240711818686    0.85454882426723   -1.34332157429267
N           0.94332023323593   -0.61353760747887    0.11461039058074
H          -0.06360436877789   -0.71517564694510    0.38415279383023
H           1.50199564260936   -1.30308285177609    0.65983042943239
H           1.03596712784938   -0.72829985286339   -0.90828210498785
H           1.20881360276618    0.38573606963202    0.33596987632318
