    26
        -50.46103448  Gyration_radius:  2.7301324316 Dipole_moment: 2.744
 S          -2.37120698820660    0.33075914566764   -0.74737270488529
O          -2.04794346810158    0.51615973704074    0.66017407522879
O          -1.42439549015205    1.00014721872381   -1.61857221189038
O          -2.54889163384458   -1.07963369933285   -1.06413363553025
O          -3.77906636584723    1.01309756606326   -1.00066628903607
H          -4.38113071319117    0.38159413441379   -0.61979191132639
H          -1.22829162545679   -1.97596870881696   -1.07228693037948
O          -0.36161372704790   -2.46243991312311   -1.01556068632819
H          -0.42389474477275   -3.18466536438765   -1.64184742719062
O           0.35864914719523    0.57586846558312    1.83474755567389
H          -0.51619304656677    0.91297178479574    1.56297598126479
O           3.21666912558527    1.17837022590894   -1.12800697882194
H           3.26737689677522    1.98172953041166   -1.64821568929596
O           2.78698760974846    1.84717439424838    1.46034004579945
H           3.36274514695272    1.59685958726133    2.18442046180548
H           3.19268265474102    1.46059756484432   -0.18945675300342
H           1.90032108259838    1.51929728841332    1.68926868607231
O          -0.91783754527908   -1.76652529043198    1.70806520812547
H          -0.68088934521708   -2.30241960846948    0.94161357964606
H           0.14581256794066   -0.33174891662340    2.13322427933316
H          -1.55907145275460   -1.11442419320458    1.37648779741778
N           0.82278441536662   -0.02644876937838   -0.77490416968896
H           0.75570802287723    0.16542336485634    0.25249798108861
H           1.74245603882077    0.32347348681106   -1.11631660254712
H           0.68018396291980   -1.03608151907678   -0.94348745192272
H           0.00804947499713    0.47683248790319   -1.22319621962633
