    26
        -50.45096561  Gyration_radius:  2.44513593294 Dipole_moment: 7.017
 S          -1.57962090485305   -0.77925804206196   -1.46821173557905
O          -2.51896202363690   -0.83698741324697   -0.35043738011016
O          -2.06195390348831   -0.09705881627857   -2.62540881454938
O          -0.33958015799588    0.06716463222529   -0.89633643096614
O          -0.93577877760592   -2.07595584773843   -1.71193202319792
H          -1.83318211876385   -1.01092012944314    0.96952110603265
H          -0.65098716309551    0.97058975027064   -0.70385340742464
O          -1.31534592647664   -1.16064062609245    1.83337921444527
H          -1.96357707265565   -1.45877977746823    2.47264474981880
O           2.22613801820977    0.08562394782467    0.51799130736021
H           3.03700568444421    0.21893709805317    1.01111988748764
O          -0.55449227727192    2.67231514484299   -0.32738594606682
H          -1.12327264083443    3.17125445318214   -0.91603801954782
O           0.25945417521818    1.09860856947443    1.91276500611479
H          -0.13952363138951    1.76742431250683    1.34138455009323
H          -0.37657707475461    0.36159167834328    1.95913399644830
H           1.49660522193542    0.50329373483543    1.06127729725555
O           1.72005823135203    1.93448345326541   -1.51562527021617
H           0.33895183101882    2.63783555254831   -0.74658244912978
H           1.98232613803219    1.26887059531371   -0.85344756578126
H           1.32261377784270    1.42825320697210   -2.22899185047595
N           0.63205290141485   -2.17532248370911    0.26715182535020
H          -0.00178577595523   -2.18361470905281   -0.64688488848776
H          -0.02728544984397   -1.94869831395550    1.03924501823597
H           1.09673106221651   -3.06517293704278    0.41066713198538
H           1.30998787693171   -1.39383705356888    0.19485470091310
