    26
        -50.46445286  Gyration_radius:  2.49605746801 Dipole_moment: 4.434
 S           1.10675062899122    1.22345333678866    1.61999502361714
O           0.88917179622609    1.67608188460270    0.25243060222715
O           2.06856341895135    1.94811265291540    2.38206015016421
O          -0.30067807826868    1.45946098493211    2.36944933023180
O           1.28931470865972   -0.23360907412970    1.62904260687770
H          -0.05397321530563   -1.20782750681713    1.96492200983020
H           0.01421421422784    1.90876914715508    3.14574655031489
O           1.39374069184816    0.88490885619821   -2.29746658377855
H           1.36000634155438    1.45399018314919   -1.51020180519758
O          -1.36580153874055   -1.68697245584081   -0.59768618361848
H          -1.36291874818102   -2.02407345151922    0.31389479186559
O          -0.79318143878880   -1.84660058486811    2.04340908866165
H          -0.62593265470823   -2.35330169581558    2.83841917441373
O          -1.26108098579446    0.67998922521110   -2.83828013902201
H          -1.56129779988324   -0.23035636261359   -2.89202201092039
H          -1.55534128104986    1.00666262368297   -1.97549946825124
H           0.49505580424650    0.92564755215103   -2.68515924813666
O          -1.58036753563609    0.95457962443693   -0.09638384208901
H          -1.58190313055578   -0.73649476546022   -0.48264848726896
H          -1.99211007354998    1.10171041397339    0.75796402850144
H          -0.64865179022866    1.26433841361977    0.01902703818753
N           1.23180962484023   -1.25784482021826   -0.80419688299347
H           1.38503033021994   -0.45496689678119   -1.49858426004242
H           1.86034387910066   -2.03339885636315   -0.97919929426096
H           1.37753206377446   -0.86606338115103    0.16384351502235
H           0.21170476807821   -1.55619504731953   -0.84287572430010
