    26
        -50.46269068  Gyration_radius:  2.40634048396 Dipole_moment: 8.512
 S           1.30433134152943   -0.28961481232801   -0.85684966182145
O           2.17729807579262   -0.98670098322571    0.09323173457483
O           1.91211693597519    0.02808899992074   -2.10975914412896
O           0.12651004480933   -1.30046432216133   -1.17201909432273
O           0.67634398243481    0.86237879145762   -0.19448619631991
H           0.95397828227241    1.53143006349353    1.29901396877790
H          -0.33752673193190   -1.48952116272568   -0.33166277044400
O          -1.31000790658254   -1.56895155719541    1.09223493585201
H          -2.04910331575220   -2.17788017116252    1.05834359379301
O          -2.15477929681032   -0.04710954015803   -2.38927516302816
H          -1.60615473978897   -0.83761026948606   -2.36289122098727
O           1.16591117473012    1.69856151556966    2.24744257033246
H           1.99532972181912    2.17868549706885    2.25392245157778
O          -1.97322256934968    0.69353832960919    0.16169472412243
H          -2.25913180814551    0.48058747488864   -0.75963375839305
H          -1.68077845206251   -0.65439073929890    0.81755906754395
H          -1.04378419284059    0.97507123614727    0.05966611645410
O          -0.09210449043665    1.62446499494030   -2.84757654651514
H           0.68111177240630    1.03702571638171   -2.74321916016711
H          -0.04036027284203    2.23557491391477   -2.10908010695714
H          -1.55308554851587    0.64856760844291   -2.72948004212020
N           1.01622547458510   -0.94490108105900    2.34438443673828
H           1.03726255394718    0.08060540671041    2.56849693330389
H           0.04977959556305   -1.23890825067133    2.12262100940728
H           1.58453702606816   -1.02894739752005    1.40362511266393
H           1.41930332310402   -1.50958026152529    3.08369620006195
