    26
        -50.46949762  Gyration_radius:  2.56242735912 Dipole_moment: 5.889
 S          -0.49186480191979    0.24080411148469   -0.11501134803693
O           0.45549506307935   -0.23507141472614   -1.25320079229189
O          -1.42132007996643   -0.86805257888669    0.07275497087880
O           0.35408152042823    0.40062607019301    1.08402370315434
O          -1.11797974418387    1.47810191823937   -0.50359099314590
O          -0.60224589539314    2.72860279082764   -2.79286921286873
H          -1.15231750804868    2.33921701682078   -3.47368177807612
H          -0.90191904187744    2.33918308284881   -1.94464805794836
O          -2.02570907565145   -2.00874073265894    2.38307749583710
H          -2.62360403855381   -2.73242802696914    2.18712121219580
H          -1.96399727913856   -1.48047946361930    1.55570492763336
O           1.16425178532333    2.86998839606570    0.47157399524672
H           0.92436162806769    2.00367046323877    0.84896574034542
H           0.32424310083065    3.27904049257981    0.24400912707760
O           0.22750133028378   -2.86716012633817   -0.41171644782664
H          -0.51155628664822   -2.21880614250538   -0.36918255505432
H           0.79954283091630   -2.52265376449052   -1.10310719316228
O           1.77048842327463    1.81447245191259   -1.90165760002262
H           1.08873378818083    2.26549410924263   -2.43897954256782
H           1.77386012138483    2.30193995475813   -1.04549443579821
H           1.03801805107864    0.56545412419464   -1.53913749690318
N           0.61043615801337   -1.96157030938618    2.03972357151950
H           0.67037789024281   -2.51265037272953    1.14416689775512
H           1.35672070978269   -2.16285132964727    2.69542685086640
H           0.59761162873180   -0.92712805090910    1.72740393464904
H          -0.34321029822010   -2.12900266955031    2.43832503653563
