    26
        -50.46269064  Gyration_radius:  2.40624729299 Dipole_moment: 8.513
 S          -0.84117526383685   -0.69029181854136   -1.15553143952543
O          -0.77936012805780   -2.11306509705588   -0.80557386742423
O          -1.45454523088431   -0.40674693192278   -2.41385577138290
O          -1.75454424972207   -0.02002616401529   -0.04869312010360
O           0.48909964820486   -0.08601585180742   -0.99600137069636
H           1.96182884716674   -0.78629111789002   -0.68840813559157
H          -1.32246042318712   -0.15766387130136    0.81828089336378
O           2.70210122446099   -1.35952745192816   -0.37873449238830
H           3.02841795362498   -1.81527987943638   -1.15613825552544
O          -1.50938468780761    2.84107266143115    0.04960476747900
H          -2.11093056761079    2.09451847984789    0.13570144513314
O          -0.40066457588234   -0.15203333811588    2.27766965408459
H          -0.84727844394587    0.19641426545231    3.05053228523272
O          -0.64897779974140    2.13467516961698   -2.40354820761452
H           0.29412902966912    1.96530123697565   -2.34522505815915
H          -1.23808695478184    2.81997680050643   -0.89262142774374
H          -1.05633987564577    1.25520011154752   -2.52381753606973
O           0.71745006058223    1.71317905307540    0.97540681525051
H           0.12244259506233    0.63044115284266    1.87344570378573
H           0.81983580379155    1.15770127544857    0.17890941722879
H          -0.03584206459429    2.31200615448132    0.75194845378930
N           0.78687041413135   -2.32915035882140    1.17386314125871
H           1.70392411161179   -2.05530862991434    0.74199835135124
H           0.07847129098993   -2.32912270456228    0.32936566120369
H           0.83106505698358   -3.23212780022201    1.63274564399296
H           0.46395420941222   -1.58783537567304    1.81867644907868
