    26
        -50.46269064  Gyration_radius:  2.40638807962 Dipole_moment: 8.510
 S          -0.72779887937558    0.69379208132207    1.22833802892026
O          -1.54215521469547    1.73176977646356    0.58789692341883
O          -0.72054009080207    0.73156739721191    2.65612705630204
O          -1.39510676683087   -0.68285912037899    0.81830499902078
O           0.61430440249711    0.68175600562050    0.62946402573170
H           1.32673137911397    1.72727606239496   -0.44520950532655
H          -1.36207176135693   -0.75158280702732   -0.15707411393645
O          -1.02263197338574   -0.98040117449462   -1.83435836747718
H          -1.40061563031502   -1.76557970615676   -2.23288877815697
O           1.52295184233614    2.36878103843420   -1.16791562997195
H           1.75135300936953    3.19357225406143   -0.73659027046594
O           0.31776009266519   -2.95021040609434    1.24435245810616
H          -0.58788824305357   -2.62547486327462    1.27480410314079
O           1.22971278346548   -1.50200802743183   -0.79506113145288
H          -0.07338998170754   -1.23539784758630   -1.54593456191337
H           1.22868041179459   -0.67957970327079   -0.26870481101080
H           1.01372223563159   -2.20565162099172   -0.13609691499549
O           1.28973133905614   -1.01021505840963    2.84135289496278
H           0.77917516046220   -2.43284895373641    1.93801302674756
H           0.52315343484865   -0.41253370286814    2.93607712352733
H           1.93367393567199   -0.50903529720508    2.33583131975367
N          -0.95004176378789    1.73278385983618   -1.87518075180603
H           0.04589738640695    2.06391779360684   -1.84847662540848
H          -0.98323265448518    0.73128125931436   -2.13118886126167
H          -1.28402685644961    1.79097237674860   -0.82627496432948
H          -1.52734757708124    2.29590835388771   -2.48960667210008
