    26
        -50.46103457  Gyration_radius:  2.72984764786 Dipole_moment: 2.740
 S          -0.82980294312180   -2.05322624098990    1.17512121302624
O          -0.65059567362826   -2.09782212071277   -0.26912208736463
O           0.30816687848590   -1.45814321768145    1.84925114160644
O          -2.09879048489957   -1.43164795755140    1.52798071245729
O          -0.92432104946634   -3.55120986649540    1.68418715284154
H          -1.80806091237362   -3.79606542036559    1.42850649559790
H          -2.20676269605918    0.14328849229230    1.29310919204594
O           0.49004647520780   -0.28070044737060   -1.87256130185913
H           0.36774090089741   -1.14894958923951   -1.44348888448105
O          -2.19641972695038    1.11509389831481    1.07743275663819
H          -2.78621186123365    1.53059057241583    1.70768783314098
O           2.74013622422236    2.29112785291297    0.50163720040139
H           3.50611197973195    2.00247119867505    1.00019262425364
O           2.84077552292642    1.17539667695885   -1.96355058407427
H           2.87715737182366    1.97783310861945   -0.41711401355021
H           2.09005485702928    0.55966411442664   -2.02164145328716
H           2.84555496835154    1.67308559605334   -2.78248230226807
O          -2.15049956406713   -0.14134755052975   -1.49752504296528
H          -2.41496501569742    0.45389089977686   -0.78581947437378
H          -0.42634919173849   -0.04347923870205   -2.12173652487329
H          -1.87851858301968   -0.96421023566952   -1.05567251673483
N           0.46687265284647    0.83244205912426    0.60686009611506
H           0.53563264929848   -0.04262395528679    1.19646423247112
H           0.49507111368760    0.51559074447130   -0.39102552949960
H          -0.45527423158813    1.25502908299689    0.80473025222492
H           1.26325033918924    1.48392155381276    0.76857880275411
