    26
        -50.46445272  Gyration_radius:  2.49582723913 Dipole_moment: 4.454
 S          -1.65111164573368   -1.28344295358068   -0.98618316581415
O          -1.76261969724919    0.14620854380087   -0.72988997051832
O          -2.86096036277845   -1.96801137747287   -1.30042314465452
O          -0.73477753938771   -1.40315757276059   -2.30690058697760
O          -0.85152169009603   -1.90906858254382    0.07509617593643
H           0.79987333440156   -2.15350105153582   -0.20368360062899
H          -1.26535605042835   -2.01460880404334   -2.80511037122699
O           1.77605443981943   -2.23492069586508   -0.23861194260174
H           1.96801795034180   -3.17222201175297   -0.20611996362674
O          -1.61271586685675    1.90102484138729    1.33991779001979
H          -1.96251861187129    1.44689259930916    0.55504693202323
O           2.13609914919302    0.30067208319375    0.63879250106429
H           2.34376102027629   -0.62136482925677    0.41244686512285
O           0.59198706412295    0.94571198558673   -1.47596493037493
H           0.80268592213294    0.38952776339029   -2.22920573868303
H          -0.32057299451121    0.67248687067148   -1.21147219060778
H           1.68674438761217    0.63225488180339   -0.16844020912358
O           0.55505834135985    3.12007503436205    0.24619931103994
H           1.37115364966032    2.90662655331377    0.70475307967344
H           0.55919494744294    2.59030954349479   -0.56435949806589
H          -0.94751818806334    2.53376667468347    0.99811682950315
N          -0.12273012197603   -0.16974267145120    1.92351418053103
H           0.84930500466267    0.06884168530031    1.56357800611374
H          -0.49668307799285   -0.90593153547638    1.26778455161355
H          -0.10016155177659   -0.51224220926053    2.87711183233542
H          -0.75068786230487    0.69381523470951    1.82400723794188
