    26
        -50.46809728  Gyration_radius:  2.53162829286 Dipole_moment: 3.087
 S          -0.10488819239760   -1.68899337025590   -1.10462344814076
O          -1.32627881217831   -1.89091296342273   -0.33487336110180
O           0.04970163101225   -0.32193282457497   -1.56719353388520
O           1.05947460450951   -2.16785752010702   -0.38566819800588
O          -0.25590456520676   -2.57249896495668   -2.40832403061534
H          -0.51043465990120   -3.42548357197233   -2.07015306855585
H           2.44047974421395   -1.34743930910725    0.15351575554899
O           0.08532373238273    3.33496840102062    0.41687642246065
H          -0.52406783685866    3.80271144610231    0.98920158723235
O          -2.57118911026627    0.38113396341614    0.41856114887640
H          -2.25484550645337   -0.45453240549467    0.02880575193878
O           3.13909224890154   -0.72317239564670    0.44736960114424
H           3.84415338673859   -0.79319700182616   -0.19723226829098
O          -1.38825803037673    2.07236296095697   -1.37101266765655
H          -0.45524582102055    3.00668598987041   -0.34898421815334
H          -0.87480475796386    1.35650027623778   -1.76990005467189
H          -2.00261854507472    1.61409418360143   -0.77018599820942
O          -0.28964153880540   -1.15726803725370    1.98839798929089
H           0.42479988376987   -1.77371939622081    2.16617355394698
H          -2.48662484059550    0.26942074121164    1.36761203263574
H          -0.74048009552341   -1.51614154919858    1.19398205501559
N           0.95721305923822    0.82503716721413    0.65061429512615
H           0.62833643050810    0.48958607496535   -0.28724276634702
H           0.44616927375293    0.24514110633315    1.35221620955674
H           1.96226436763895    0.58752721894938    0.70929359151162
H           0.74827393996285    1.84797978015296    0.73277363931890
