    26
        -50.46824496  Gyration_radius:  2.53245231452 Dipole_moment: 2.036
 S          -0.16124611830729   -1.68743388018538    0.97144521462845
O           0.31279772779426   -2.17034653336344   -0.32025214018720
O           0.49193695968362   -0.45725484576535    1.37530973284838
O          -1.60762401647256   -1.60282956587003    1.01641873826620
O           0.26843232854822   -2.77518105103062    2.03987442478442
H          -0.22880044219631   -3.54646567968362    1.78533530251722
H          -2.49281904973061   -0.16658077595557    1.24416082669724
O           2.10488021430480   -0.60446930429692   -1.53498510686150
H           1.46282700116508   -1.18897001111234   -1.08258497840526
O           1.13265446868462    3.04402457656281   -0.78728004578729
H           1.51407661607104    3.07828465830128   -1.66600647063128
O          -2.87741371872617    0.73263939392395    1.31863124351687
H          -3.08497613733538    0.85571705991842    2.24543592831731
O           2.55817872587760    1.18945606581713    0.45021969829296
H           2.00307793312452    0.72383765150864    1.08984807716442
H           2.58291665588423    0.58536915900240   -0.31600792952092
H           1.75283600005637    2.48940105056524   -0.24635761816441
O          -1.52211513689241   -0.85516526191880   -1.73960630162674
H          -2.32196745411141   -1.10176034191961   -1.26649599749169
H           2.71097207563455   -1.18556905408898   -1.99631953602496
H          -0.82998465379825   -1.44550773325266   -1.38322109985282
N          -0.75784557087601    1.24569735960907   -0.25580478911503
H          -0.17176681369364    2.06295529165208   -0.55955706828853
H          -1.61980458871630    1.50453410745170    0.24878021385659
H          -1.02350579089189    0.60832808489017   -1.04223573938252
H          -0.19571722504584    0.66728957926126    0.41125541045588
