    26
        -50.46445288  Gyration_radius:  2.4960657192 Dipole_moment: 4.434
 S          -0.87101343515550   -1.61807425622563    1.40325299640193
O          -1.36094617674245   -0.24843222917449    1.32292196111068
O          -1.30040062963690   -2.37981931561139    2.52869864597470
O          -1.49463584226816   -2.36356487392304    0.11735997273071
O           0.57881874166934   -1.63259740539421    1.17044584618796
H           1.13745231006594   -1.96941406530293   -0.39157293009818
H          -1.84118837246764   -3.13879215195272    0.54465924051274
O           1.54399948735835   -2.04849421898665   -1.27994213583544
H           2.07895284660078   -2.84224528908667   -1.25980633800209
O           1.23876434986590    0.59381321457126   -1.78309772739104
H           1.55959215186248   -0.31902761146166   -1.87508798944190
O          -0.45070329899322    2.29803813127197    1.58762090456707
H          -1.00952192419666    1.51289371307883    1.71420450387633
O          -1.35910481012254    0.10270732890397   -1.24954241965898
H          -1.39594329347616   -0.01322611601200   -0.26844351537785
H           0.26534267933605    0.48290198600926   -1.72463062408653
H          -1.61811620381191   -0.75068429234321   -1.60415901830298
O          -0.99491954908859    2.84298120905207   -1.01792711289959
H          -0.73998650301542    2.68742089644666    0.73655294910805
H          -0.20442754588699    2.89318543485124   -1.56049369840264
H          -1.39504279684253    1.98230195490618   -1.20975078161078
N           1.55501288111000    0.79749620585825    0.83077639075268
H           2.47621707605185    0.96877891829032    1.21706085880402
H           1.21612136267474   -0.16941627980243    1.07966385407292
H           0.82983993030538    1.49438029750763    1.20330077102218
H           1.55583657480103    0.83688882453224   -0.23206462404049
