    26
        -50.44345760  Gyration_radius:  2.61772806091 Dipole_moment: 6.174
 S          -0.02480958850355   -1.42015739927327   -2.32955979050196
O          -0.88999489143460   -1.19108031828222   -1.19311010074741
O          -0.61264347188640   -2.03051448339588   -3.46059034180156
O           0.63955764476954   -0.04489030941169   -2.70665911366649
O           1.19982965915242   -2.22433939812155   -1.87598878018422
H           1.65243091152419   -1.69976293935756   -1.13518502794046
H           0.07818765522194    0.69079182291087   -2.41563353539622
O           2.35056690515202   -0.82962731536271   -0.07670089585950
H           3.22706250064056   -0.63601009690530   -0.41528010897588
O          -1.06670424232284    1.43940027454168   -1.26493174715611
H          -1.27388002614862    0.50097380113658   -1.10500554120436
O          -0.34585339181804    0.96093031506699    2.47720091628589
H          -0.05198108992480    0.98822447534868    3.38790582277891
O           1.20253453084109    1.47133753026186    0.25311328045392
H           1.90152170927713    0.06425092786579    0.03960261771448
H           0.47793873962534    1.59232940490656   -0.39090659461969
H           0.75982333461737    1.43945380098937    1.11945506302967
O          -2.27670788328817    2.25873392269624    1.00516149447233
H          -3.10300853862979    1.81972813148466    1.21202221099128
H          -1.60605518546377    1.88643373401138    1.60564597472555
H          -1.57449412504771    1.93382766189979   -0.58807275244142
N          -0.13176317400343   -1.50856228318340    1.56915562360388
H           0.85772298205155   -1.69016712175889    1.43995045758494
H          -0.53536462673124   -1.45557059267835    0.63418008592681
H          -0.53729758275795   -2.31362490009638    2.02981491214549
H          -0.31661876494602   -0.00210862531525    2.18441588082259
