    26
        -50.45503922  Gyration_radius:  2.690722712 Dipole_moment: 6.787
 S          -0.86445101732826   -2.63822433600492    0.21849695224053
O          -1.38052243387272   -2.01414006346276   -0.99792192848398
O          -1.32001474159238   -3.96239881489591    0.47985878024919
O           0.73110010770466   -2.77841176043855   -0.07342387620283
O          -0.92845436212297   -1.70839654090036    1.34509480206985
H          -2.35848392172769   -0.07634632251247    0.92517064550801
H           0.85812219319086   -3.71164118959324    0.06148013330323
O          -2.53403259430430    0.17503091340242    0.01343144672976
H          -2.29947881272405   -0.62526888547004   -0.49241430486103
O           0.44571744562188   -0.46393314815127   -1.96009822045499
H          -0.29389153532958   -1.06988484087976   -1.68436997614817
O           0.18244402286860    2.71149786614427    0.74804699536814
H          -0.49500068958678    3.10687306315195    1.29835196146136
O           2.86624711266118    1.82301195027446    1.27366417030988
H           1.03665423980346   -0.99914658739792   -2.49119084395431
H           3.62241142325140    2.40166062254070    1.37495162467960
H           2.10381306234903    2.38983179174861    1.09286707775318
O          -1.02720943305124    1.91334745524922   -1.40914073928859
H          -0.49815995859747    1.26244636926938   -1.88743709346276
H          -1.72236026146784    1.38927892753521   -0.95934956417402
H          -0.24284715164993    2.56762357804690   -0.14508767439144
N           0.83270915137194    0.05762920927201    0.66684872584513
H           0.87374692121687   -0.10426735698326   -0.36428313799221
H           0.15377897178332   -0.66282758599429    1.06100657625903
H           1.76511442281760   -0.01235591581215    1.07201329417617
H           0.49304785868652    1.02901159183255    0.83343415344549
