    26
        -50.45503917  Gyration_radius:  2.69077699321 Dipole_moment: 6.787
 S           2.42620838002422    1.27803828179795   -0.48677939018223
O           2.63165325450799   -0.00475079452500    0.18232844934655
O           3.59600207218749    2.06205316930073   -0.70168686378410
O           1.90946480577452    0.85407975487550   -1.97131101393286
O           1.28226680558093    1.98467947810785    0.08772788303893
H           0.80195887263401    1.18535045838054    2.09149069051141
H           2.54452342691050    1.30374609476020   -2.51880199600017
O           1.03096499606076    0.27575604564352    2.30473793219734
H           1.75499209519624    0.07189646845791    1.68374587421500
O           0.91277543865294   -1.69422444834639   -0.74232917862235
H           1.63497625438078   -1.12304219032989   -0.36499180133975
O          -2.53746239138903   -0.32561141332230    1.18366169186966
H          -2.74964958227060    0.12447583058543    2.00249247917847
O          -0.51401125946071   -1.86574115056449    1.71961054134481
H          -1.88380484041528   -1.04121285300000    1.42841540664623
H          -0.05672889787292   -2.13726900131384    0.91371251127810
H           0.05562394849564   -1.16956735564164    2.10833650067293
O          -3.27342072224623    0.13531503118202   -1.55737365480615
H          -4.12576933758273   -0.07984314073457   -1.93684291721510
H          -3.30329230831288   -0.13975823741238   -0.63068660223517
H           1.26876471637852   -2.06375175412626   -1.55130938176788
N          -0.68737750771842    0.48618497817591   -0.65765144143219
H          -0.18294152723045   -0.41039636420084   -0.83915035812653
H          -1.36973290637797    0.32844967720527    0.11447160977224
H           0.05285241272624    1.20068786064220   -0.38043833556393
H          -1.21883619865394    0.76445558437255   -1.48137861504010
