    26
        -50.45004764  Gyration_radius:  2.5383039612 Dipole_moment: 6.003
 S          -2.24928753928000   -1.32485424423081   -0.23167405334405
O          -1.52651205734686   -0.54737895453178    0.75113844970022
O          -3.49771263742485   -1.86450304481948    0.15117095156745
O          -2.42542593079987   -0.45541678307490   -1.50423779743858
O          -1.32393454996679   -2.47832172274381   -0.70337088219659
H          -0.36738045188612   -2.19037526831238   -0.70128928940956
H          -1.76965223535290    0.29724129621805   -1.55179113013068
O           1.19307283606676   -1.86582668385587   -0.58874962386058
H           1.69106473814095   -2.68157588796420   -0.66099144524803
O          -0.78332249859619    1.52526705984607   -1.79889707957965
H          -0.85761946437671    1.79659222666530   -2.71522029896182
O           1.72197303499035    1.81060713050618    1.16764326245143
H           2.11169994283978    2.67301800084639    1.31517058282651
O           1.63802914172513    0.74744559456910   -1.34126345175626
H           1.57114812923405   -0.21189898426372   -1.20917957391639
H           0.17117969749240    1.23029825506021   -1.66354578960327
H           1.80848843506743    1.12239635669488   -0.45325406589222
O          -0.89549100011420    2.07230917651966    0.93616991620547
H          -1.21173042612063    1.15737382493326    1.04297997793629
H           0.73714902415288    1.94839749949788    1.16316021383024
H          -1.00528316024406    2.25031623403415   -0.00698582487361
N           1.09433946449173   -1.00086038399601    1.83693859821654
H           1.31383705701311   -1.50888781781212    2.68309103548234
H           1.22595964147804   -1.57325711670794    0.39860392449996
H           0.08991025125183   -0.83627934876903    1.80681092388918
H           1.54550055756483   -0.09182640430918    1.87757247960724
