    26
        -50.44437980  Gyration_radius:  2.55297835856 Dipole_moment: 6.731
 S           0.43459936590738    2.62893553544906    0.59260454156730
O          -0.90268143255163    2.87116535358084    0.13206552354357
O           0.94441890806242    3.41640196072407    1.65128764454089
O           0.52203578981131    1.10244156589890    0.97435725067923
O           1.41932465128405    2.70592386627250   -0.60471255986303
H           1.10494340930624    2.07978740209601   -1.30486995490260
H          -0.43759719874308    0.75568926648358    0.88154423199739
O           0.84363863173028    0.79043087202557   -2.30317054544841
H           1.34287616778339    0.91404989921114   -3.11231100782737
O          -1.90449049585500    0.48500448921985    0.61375915110043
H          -2.03494661020100    1.42425449006813    0.40117665319573
O           0.08130080402676   -2.60125184698087   -0.20614787098817
H           0.07769273328555   -3.55875541733860   -0.21042355116378
O           2.01394337585564   -0.72409850767585   -0.55022288173374
H           1.78139973202410   -0.13932821739211    0.18468539944399
H           1.43222406895794   -1.50293750884138   -0.46095021262431
H           1.37201877089295    0.16033747720727   -1.72855051104047
O          -1.41522644079002   -0.75847845023218   -1.64990982185391
H          -1.88131979442346    0.00870696936878   -0.25966066368783
H          -0.75971870945344   -0.16634605397479   -2.04717771321459
H          -0.91901737716554   -1.51210581217771   -1.28854402833237
N          -0.64301167745491   -1.67145437611049    2.18353099857129
H          -0.95483415697286   -2.26390944619079    2.94309044525614
H          -0.20772285442093   -2.30811695487024    0.70623775777780
H          -1.41077904900354   -1.05726768024689    1.92837152641780
H           0.10092938811207   -1.07907888557707    2.53394019858983
