    26
        -50.46843458  Gyration_radius:  2.5387936835 Dipole_moment: 4.854
 S          -0.20762756006760   -0.82801685453699    0.34937443235393
O           0.67014315917459   -1.85406649611570   -0.17400929576713
O           0.50253275794968    0.46933974565044    0.41611787365520
O          -1.41800837189602   -0.69001322636396   -0.45938892654264
O          -0.59345168534876   -1.21170308844822    1.78062299036306
O           3.09890707103922   -1.47333778118524   -1.09562751869363
H           2.22703227498164   -1.75428042530157   -0.72658492320769
H           3.71775773675750   -1.51375482976619   -0.36527485688592
O          -0.31928686055405   -1.13964201013633   -2.78032911639434
H           0.06186493843010   -2.01018454666954   -2.63356666180564
H          -0.88209200844874   -0.98402201738308   -1.98437061757386
O           0.36918242158915    2.06014130980683    2.55699174453364
H           1.00122397613737    1.68194334592362    3.17068721048008
H           0.46623521899338    1.55991475458591    1.72093324424152
O          -3.06782201699642    1.22395740844008    0.27369090323432
H          -3.95114457092887    0.88986856739963    0.10835319298406
H          -2.45147803677808    0.54997255068325   -0.08985566144817
O          -1.96606093579114    0.71936962369087    2.65888137795226
H          -2.47323552428541    1.02224893622079    1.87311605467435
H          -1.19211403470286   -0.46744019129029    2.16966180926550
H          -1.25003253379329    1.37735704441465    2.77682343881069
N           1.54964096662249    0.50928868756431   -1.93636669602685
H           1.77513451226948    1.37898866647683   -2.40624417626248
H           1.12648108668367    0.65835015091295   -0.96339828273473
H           0.82523529347418   -0.06912232110618   -2.45942460214993
H           2.38098273549052   -0.10515698348311   -1.78081293705318
