    26
        -50.45503905  Gyration_radius:  2.69075095319 Dipole_moment: 6.786
 S           1.70290590521038   -2.13199585170965   -0.55885554361897
O           1.24419152162224   -1.48824592079527   -1.78791024878178
O           2.50756601821635   -3.29521795738106   -0.72844284480415
O           2.68512567545276   -1.01896187077036    0.10975493506826
O           0.60884155544506   -2.24921714450165    0.40409929026510
H          -1.34577776684014   -2.05879046455955   -0.61312601618202
H           3.48606597822151   -1.52234227131714    0.21162121402672
O          -1.40419098667617   -1.55725890466352   -1.43185192062028
H          -0.49332530141312   -1.58260888994825   -1.77982320856653
O           1.11453384860906    1.05711123797926   -1.37724130889777
H           1.17852321568817    0.09784465140051   -1.63413932663102
O          -2.35227704421048    1.22521849908181    0.95707159683114
H          -3.15908082184656    0.71661115064775    1.04914529121111
O          -1.72888618670277    1.12479183806547   -1.56395078272188
H          -2.21161635087146    1.33602058899221   -0.02633878498094
H          -0.80303323780612    1.35896885253651   -1.70639322703696
H          -1.75573369445813    0.14871995008746   -1.64593072145178
O          -0.42184356750802    2.20308329942422    2.85026336982195
H          -1.22247617203149    2.11502913991494    2.31494643606986
H           1.98901285933525    1.42274901649561   -1.51628790226815
H          -0.55263287532971    2.96179612266552    3.41968948784018
N           0.19106940829035    0.22426022401396    1.02616427335169
H          -0.82575009025187    0.45208353892076    1.05276086138274
H           0.61343405494941    0.70024987904515    0.19781457289254
H           0.60487838231014    0.58069469248434    1.88653648608539
H           0.35047566250664   -0.82059337612095    0.89042403165033
