    26
        -50.45388669  Gyration_radius:  2.7041529042 Dipole_moment: 3.703
 S          -0.87201371205538   -0.44935136498339   -2.25404489337014
O          -1.04544034286246   -1.32631740207653   -1.10313850076870
O          -0.63764158438485   -1.10881393613280   -3.49648842068342
O          -2.27971471022951    0.31584631669879   -2.42713024503591
O           0.06740282530046    0.62945281177249   -1.92443287792839
H          -0.91746996059340    1.91039887548453   -1.30490085106957
H          -2.62513389127033   -0.17065690596899   -3.16645154100691
O          -0.23590610399223   -1.60538121117276    1.38922165846070
H          -0.45795273771025   -1.72447512049751    0.43873869874020
O          -1.42802036396629    2.51016667044407   -0.72548128926684
H          -2.16889429224325    2.80712820818658   -1.25568823590425
O           3.26335552456134    0.51759499681742    1.25667989549817
H           3.88237436233856    0.43867439048025    0.52886222205190
O           2.45031109299367   -1.95083066161591    1.95963132777362
H           2.53778347611317   -2.37039226478284    2.81666766014045
H           1.50452120280068   -1.96924159236592    1.73691038199073
H           3.09738577445973   -0.39502524346843    1.57628468691051
O          -2.20272556707368    0.28692983084786    0.76558067006560
H          -2.01923164422585   -0.29934185555798    0.01370921065644
H          -1.08234717711113   -1.39903349330637    1.80223505223831
H          -2.16109890533513    1.18026707585138    0.39362328361548
N           0.67502833154236    0.85054389664890    0.61205467548825
H           0.16322819467870    1.68327567270139    0.89686758616217
H           0.26531668636366   -0.00181756636613    1.05955251743960
H           0.53292105083292    0.73566029170638   -0.43436610565922
H           1.69396247106920    0.90473957066743    0.84550344350269
