    26
        -50.45388713  Gyration_radius:  2.70448856701 Dipole_moment: 3.707
 S          -2.23724701032810    1.01425424374907   -0.11043656624573
O          -1.33413095355417    1.10910965917175    1.02943325557063
O          -3.61726569440249    0.85894995762730    0.21344365201358
O          -2.12486846063456    2.43299400061981   -0.86649981444897
O          -1.70722045338825    0.05941939064137   -1.09137959696411
H          -0.72768002002852    1.00606962934475   -2.15840549334809
H          -2.93601175792118    2.82755243360454   -0.56827969134730
O           0.01377473017766    1.47979619804804   -2.58497779465844
H          -0.37820038131598    2.25418564508761   -2.99102799322700
O           0.95511706742557    0.14053024364875    1.90516710960346
H           0.02032471582776    0.42233966414299    1.78842080494046
O           1.14148398726285   -3.33653162661105   -0.25029171827726
H           0.38043987213672   -3.90814052692942   -0.36518396568563
O           0.94598545481021    2.14877552253491   -0.04520167186709
H           1.45736835747321    0.95950032415361    1.82339291014778
H           0.80716073444673    2.13464157520124   -1.00364984002907
H           0.06164616515698    2.01189270080660    0.33146385538299
O           1.25963849976305   -2.57741247290328    2.33050557919379
H           1.09626122689032   -1.61959939814825    2.31103124406842
H           1.23488083980434   -3.19425805531509    0.71589034024048
H           1.97846712753819   -2.71984610218043    2.94794233206816
N           0.76103553257382   -0.71079857664694   -0.68394237069283
H           1.00563732344885   -0.33375700095043    0.26086630490579
H          -0.26990808812498   -0.50124653478466   -0.83122685531224
H           1.27641393988566   -0.21593740481066   -1.40921057626240
H           0.93689725507368   -1.74248349907619   -0.69784343979390
