    26
        -50.45004639  Gyration_radius:  2.53793328363 Dipole_moment: 6.012
 S          -1.96915611825000   -0.75131598079964    1.55592073907591
O          -0.67880466024133   -0.10403754102391    1.64948670434670
O          -2.70018788014517   -0.92704948706840    2.75225360222220
O          -2.82898959606331    0.02835644673903    0.52653477722836
O          -1.76318148267856   -2.13471154963520    0.88341746824344
H          -1.04106326864554   -2.08669877981435    0.19524661243951
H          -2.28151797839311    0.61118395194207   -0.07332057653542
O           0.19976499704509   -2.13305015633220   -0.81208483321799
H           0.40266205557357   -3.04581070160940   -1.02277884001408
O          -1.56636899194782    1.56390669510472   -1.13194691858169
H          -2.20212264312576    1.79019856566361   -1.81268675540803
O           2.28893303130800    1.40348304062808   -0.63187231294166
H           2.79290550152902    2.15071518429466   -0.95603572982451
O           0.38243111685909    0.24336647987249   -2.19762967110531
H           0.28620644918528   -0.66009211809967   -1.85576944985783
H          -0.82638847075922    1.05356077389148   -1.58846423630966
H           1.15913679511270    0.61725272354699   -1.73381856087321
O           0.27781601414525    2.28709327186498    0.83388896870577
H           1.59351181948704    1.77878488906361   -0.02823927738595
H          -0.41410683892594    2.42919813827772    0.17479494954548
H          -0.00912239252520    1.48646494012546    1.30830800983006
N           1.88741072472688   -1.12144177957728    0.85210859698237
H           2.37093767566167   -0.35065916523825    0.40083367407386
H           0.93245096716099   -1.79673028183885   -0.17036267998120
H           2.54463681514080   -1.61515076364747    1.44078220143291
H           1.16220637875896   -0.71681682634098    1.44143348791197
