    26
        -50.46846779  Gyration_radius:  2.39959224885 Dipole_moment: 5.638
 S           1.30413409335144   -0.74155090512980   -1.03096582503325
O           0.61149996309509    0.44380150327060   -1.59252605188908
O           2.72695408355695   -0.67347534507989   -1.22659379814691
O           0.94208797356156   -0.88369821341181    0.37473328868265
O           0.73959625820319   -1.97967184497956   -1.79089324911836
H          -0.20329316713365   -2.06331383398476   -1.51010455766059
H           2.83744402077916   -0.10182612661358    1.64267192626795
O          -1.83883158956178   -2.02101700348888   -1.12571998288069
H          -2.31157523003013   -2.43937967753257   -1.84734403645810
O          -1.52518397451332    1.30075538411393    1.48676246290765
H          -1.98498694121044    1.61003615410615    2.26814509211738
O           3.11288012396616    0.61058124641569    1.05783762944521
H           3.16514716714125    0.17665144514893    0.17449591458788
O          -1.32966340077487   -1.28908021669400    1.57986704456022
H          -1.81795242114155   -1.75057649729935    0.88807926425176
H          -0.41016672516594   -1.25138874157283    1.23047062884273
H          -1.48277663766064    0.30101732043754    1.57019280646799
O          -2.00365575219151    0.58179315339849   -1.25177540483806
H          -2.01711840880562   -1.04153159984789   -1.20097506193873
H          -2.03291845300956    0.96161210876929   -0.36291337234199
H          -1.05898468511053    0.61331719142935   -1.51890525939192
N           0.91321778669551    1.96271221595719    0.45832872874005
H           1.04247103358440    2.96041872072986    0.32604182432286
H           0.77854458365079    1.45202056869386   -0.47803220376000
H           1.78389568498642    1.50314793331059    0.85917684637133
H           0.05923460373657    1.75864504984746    1.01994531589373
