    26
        -50.46172231  Gyration_radius:  2.52009560351 Dipole_moment: 6.737
 S           0.36328352870875   -1.33080699970871   -1.77531854662397
O           1.08674134361050   -0.10808060770170   -1.36519177424799
O           1.23752781100841   -2.43705204939712   -2.00908640577806
O          -0.68857910697214   -1.62249888690856   -0.80144506563647
O          -0.35375418494287   -0.94861462712920   -3.12606319247509
H          -0.82786787453597   -0.13324853593641   -2.95908491920865
H           0.15419057519787   -2.71217097581762    0.31407067805759
O           1.02862350651065   -2.97298536834189    0.66277029130197
H           1.51163682244715   -3.17615786912591   -0.15179213436834
O          -0.76589077430513    1.77486941876399   -1.52926385729547
H           0.00056811251502    1.16787525525940   -1.53386715934554
O          -0.60901836172574    0.81680305758334    2.20782484517729
H          -1.04464255541085    0.54398804153580    3.01615913107337
O          -2.14779835934175    0.30648075295497    0.23351045911334
H          -1.26509317257544    0.60718306558560    1.45418848093617
H          -1.86865194499925    0.96722832091788   -0.43786337908644
H          -1.76389157044713   -0.52926807183560   -0.10610421210667
O          -0.12817028734856    3.19420682820356    0.77759226632827
H          -0.76711821503490    3.85652769145735    1.04523485284154
H          -0.23880719892392    2.44081671812919    1.37872622578102
H          -0.50307478560157    2.47874831873166   -0.91170499449020
N           1.53733303672731   -0.42767015257727    1.15382170060607
H           1.43334672101565   -0.17955264918321    0.11677232080716
H           1.43028806273387   -1.48255783857156    1.16500401355311
H           2.43839848533312   -0.12864403673797    1.51088421124866
H           0.75042039635816    0.03458120994583    1.67022615390041
