    26
        -50.43966540  Gyration_radius:  2.59490112542 Dipole_moment: 7.693
 S          -2.49986305493673    0.05484993063575   -0.09420390608241
O          -2.11258887753448   -0.27423975984513   -1.43507475710819
O          -3.69708975668936   -0.50628983432397    0.41561634497854
O          -1.29703577381011   -0.29634914092644    0.85548189274699
O          -2.54123723315045    1.59342238020533    0.07355724943581
H          -1.72720281288617    1.99523686838744   -0.34548602728782
H          -1.10557611213058   -1.26856210145566    0.67524261843425
O          -0.35214717821692    2.70400319198580   -0.79231436450427
H          -0.44234094053937    3.64858811840962   -0.65513674799604
O           2.36437871341619   -0.46790035484175   -0.58726713329270
H           3.06766924605701   -0.67463537831021   -1.20494920099567
O          -0.78164889464547   -2.75425024767268    0.41235941964139
H          -1.21708678520774   -3.37471768026542    0.99955791983352
O           0.38847121239161    0.31255570232791   -2.12430089933899
H          -0.50022741643054   -0.06626040648487   -1.97151270875893
H           0.26926440499154    1.25983164686819   -1.98789895662448
H           1.57945590362519   -0.23216307065516   -1.15496236320355
O           1.79823856289863   -2.56030332568886    0.98310089089725
H           0.19155988095090   -2.81632309260350    0.57694927543850
H           2.02800997413560   -1.82238086608907    0.37166512331332
H           1.95898323244421   -2.23265401298940    1.86940678650270
N           1.00953056883178    1.55170061075504    1.12655641594371
H           0.26413575441314    0.90700191130071    1.37431676033604
H           0.23679049948074    2.34698437185562   -0.05068765811676
H           1.37039868977371    1.97140113375781    1.97305661575253
H           1.74715821273867    1.00145340563051    0.69692741004555
