    26
        -50.46978694  Gyration_radius:  2.50697102235 Dipole_moment: 2.214
 S          -1.71392991791400    1.19202753371136   -0.50713830019869
O          -2.26338676061555   -0.12480232819665   -0.23061154228535
O          -1.27496577925991    1.33876915577507   -1.87726206620045
O          -2.89023724975292    2.23167614695046   -0.29780865212867
O          -0.68713177136227    1.57758257581458    0.45557074970012
H          -0.95216179141864    0.51540664469715    1.80980239156878
H          -3.38946829871128    2.13483608876647   -1.10190149246550
O          -1.20045219247295   -0.27826351393811    2.31621286882637
H          -1.96837311652551   -0.61337551155609    1.84142733143786
O           0.86220093597803   -0.12482455978581   -2.44186109623655
H           0.06934862855063    0.45247793028888   -2.45777184778314
O           2.80230660129551   -0.43122706643978    1.48531505850889
H           2.83840095012884   -0.10528298799522    2.38601544076135
O           0.71973853573342   -1.98664447858196    1.48699921372719
H           0.04584654387110   -1.43214705984849    1.93705553840341
H           0.38322870209393   -2.10806939729407    0.58475115100701
H           2.08005463827864   -1.12408036093669    1.48296330312715
O          -0.55478491133826   -1.94507536693512   -0.98129502827373
H          -1.05017500970157   -2.70355186279438   -1.29481215930247
H          -1.22605528399950   -1.27172137673628   -0.70555730990149
H           0.53563258522648   -0.96055385269061   -2.06545187046704
N           1.78951810826815    1.16819988697706   -0.36272771836691
H           2.27143582056303    0.55805364103949    0.35963123189152
H           2.34146845276080    1.99237032004205   -0.57274563894252
H           1.59039529902326    0.60866310292434   -1.25268330159745
H           0.84154628131760    1.43955669676667    0.00388374522263
