    26
        -50.46978694  Gyration_radius:  2.50692196458 Dipole_moment: 2.217
 S          -1.51014634535118   -0.37243995893324   -1.48176062694089
O          -1.17617046351986    1.03137532736771   -1.65529217140999
O          -2.52466397832532   -0.58609649365716   -0.47349796508292
O          -2.12746639250001   -0.86868114937332   -2.85326037853882
O          -0.32757571851046   -1.20161243747058   -1.27240289994383
H           0.98921943365373   -0.21888275016248   -1.84897894230572
H          -3.01413585475095   -0.52677369862786   -2.81022082842467
O           1.51885904420490    0.57002049966568   -2.06140282974166
H           0.85729632265407    1.21623736767030   -2.32995479308652
O           2.63556401429576   -0.82761150747653    1.61574323762882
H           3.33605084264396   -1.20385023127318    1.08038119897299
O          -1.67222395442897   -0.05635184224212    1.98022494691736
H          -2.19024826355933   -0.26780972433338    1.17452794311507
O           2.11245907171948    1.42576445424825    0.43033945921019
H           1.22164370096872    1.73480677986016    0.66051785934674
H           2.49165587016919    0.09439028316086    1.25396248392543
H           2.05197953486352    1.15560633984406   -0.51174590388136
O          -0.58047043165701    2.06989234333238    0.66034074448636
H          -0.87393965695469    2.98253497738356    0.65858643693293
H          -0.81975315590735    1.70148556072689   -0.22686360426095
H          -1.27821440149441    0.81149064662041    1.78438200055266
N           0.18412893584070   -1.75539376278985    1.25772203871643
H           1.17690982633181   -1.44070807782835    1.46219766910351
H           0.00371158245998   -1.65199780403488    0.22643255889933
H           0.03588057931161   -2.71408159713561    1.55260318195209
H          -0.52035012216112   -1.10131354452481    1.72741915390049
