    26
        -50.46648453  Gyration_radius:  2.45860648323 Dipole_moment: 1.137
 S          -0.99858972032830    1.36167264385463   -0.46051907863705
O          -0.97063039319040    0.24544950716059   -1.39703005381579
O          -0.22570964856342    2.49675196715344   -0.88363644722751
O          -2.51720738771078    1.85980119741404   -0.41425085282847
O          -0.70029677380928    0.90608540790209    0.89159084225030
H          -2.13842886301146    0.01910036119969    1.26198179050423
H          -2.47224285717928    2.72258544495092   -0.81457278801566
O           1.44131014288066   -0.55242844826123   -2.03587891415096
H           0.53436936535006   -0.17814492112185   -1.94433891897730
O          -2.92309248011246   -0.55686390120290    1.22158619016218
H          -3.58884194732253   -0.04312342687753    0.76037298191647
O           2.81498771217483   -0.26264302460429    2.00614750887309
H           2.88471429846970    0.22175267234526    2.82920017916088
O           2.12988339571932    1.39311634749118   -0.09580832840256
H           2.67674531337526    0.40879446746951    1.31087866474645
H           2.30895833950408    0.92854954551630   -0.92062751644649
H           1.34818160673566    1.94184042518988   -0.27351930914275
O          -1.46265002806151   -2.25717932475271   -0.31063026729869
H           1.42953706248457   -1.10616982611631   -2.81826048197734
H          -2.12396391400373   -1.95452843005197    0.33890826048542
H          -1.39813351540659   -1.50811241633061   -0.92717814302542
N           0.80700490624725   -1.25157303664776    0.55215443538975
H           0.30674366585484   -0.35215183533919    0.77298321650265
H           1.50556908709502   -1.40657726077949    1.29034959581928
H           0.04631723090301   -1.96287783458795    0.41706515395977
H           1.28546538189332   -1.11312629105208   -0.35696771977049
