    26
        -50.46827157  Gyration_radius:  2.47347246013 Dipole_moment: 4.492
 S          -1.43761369824962   -0.42803514537087    0.84417358227250
O          -0.90104295891746   -1.27396748852232   -0.24499803723620
O          -1.57586835753605   -1.16980960126420    2.07145400821868
O          -0.57145706641948    0.74554507874276    0.99510390369494
O          -2.84209538320453    0.05362195059169    0.41226120844413
H          -2.74624735753019    0.65842350291975   -0.37665032233283
H           0.64440880188760    0.37678289891976    2.69647469929701
O          -2.60765280133044    1.46878261975671   -1.75383754561236
H          -3.40040698169587    1.30762865065831   -2.26885334085093
O           3.04976276611845    0.16345384409239   -0.42915527132541
H           3.59672049484883    0.69273248937277    0.15389043663880
O           0.75253457534989   -0.52793952097142    3.01588466987930
H          -0.16345285981759   -0.88368981712367    2.93421491767558
O           0.86972466704933    1.62977128621891   -0.94380815905809
H           2.32453072831332    0.74854142582126   -0.73506121883729
H           0.64760312584714    2.55705175047164   -1.04041312724961
H           0.29323556149249    1.29332263605612   -0.20019628360503
O          -0.62281051560759   -0.02200863960936   -2.57341178129357
H           0.10568249583561    0.54996171438514   -2.28398759081216
H          -0.74969923854605   -0.64493243251647   -1.82815847247059
H          -1.87713912414648    0.95011260391887   -2.19305877041022
N           1.46371733362247   -1.67030070571896    0.74527165779528
H           1.77612496672502   -2.63526932768231    0.76838447947241
H           2.15317262855790   -1.05757772046296    0.24628589962103
H           0.51246323116537   -1.59521422774301    0.26042644459022
H           1.30580493535317   -1.28698782475087    1.72776402309313
