    26
        -50.46827142  Gyration_radius:  2.47321367332 Dipole_moment: 4.488
 S           1.04489437666049   -0.45035105840842   -1.29122538091423
O           1.42261071861434    0.60792350438067   -0.32844870550493
O           2.02776211502616   -1.50284104722497   -1.33447594185682
O          -0.28970657546474   -0.94666727588623   -0.94126712022950
O           0.97306767778324    0.19835960401733   -2.69329572106711
H           0.22039023121759    0.85449780390961   -2.70531680579295
H           0.00455018440020   -2.80949487090755    0.05853254284885
O           0.87143970967964   -3.00282105888631    0.43661938210294
H           1.47971021412620   -2.67385752347923   -0.26662116641848
O          -0.85762403332493    2.04207329163842   -2.66419181344860
H          -0.55654162044065    2.73016359992318   -3.26046848990640
O          -1.25492633741184   -0.26286939001891    2.80257231346988
H          -1.80083952725735   -1.02068856908416    3.01915980242525
O          -1.98362365774932    0.50278493504557    0.34263976694157
H          -2.77961660609398    0.51990471395938   -0.19087046587807
H          -1.32887422991735   -0.04859443512493   -0.17287670739098
H          -1.61547975295485    0.10882177413954    1.96982565554837
O          -0.30108727393803    2.62593499560907   -0.17753582591033
H           0.46798239494917    2.01927062423986   -0.18033258930112
H          -0.70795258781901    2.38621592179166   -1.73965315099667
H          -1.00896508508889    2.11104588326040    0.24132794214853
N           1.20599184604004   -0.79494561549515    1.84328731377175
H           1.35230098032024   -0.13498411176877    1.01374517587324
H           1.11320179620977   -1.76607473948118    1.41240591736023
H           1.99334458313762   -0.74481150480822    2.48117912033562
H           0.30799046940194   -0.54799546140129    2.32528492183654
