    26
        -50.44342651  Gyration_radius:  2.65546121928 Dipole_moment: 8.915
 S          -2.00494436086567    1.03025612375479    1.77351834110095
O          -3.18806858047303    1.29998673742008    1.01288440770768
O          -1.89988623529873    1.61556373511647    3.07031759648208
O          -2.00000625600466   -0.59486795029704    2.02056410032918
O          -0.76819040389154    1.16995294255963    0.96523774018762
H          -1.70035910832387    0.47548370478813   -0.32994432092977
H          -2.83429641513782   -0.70865840965100    2.46407919643377
O           1.19537117331166   -1.72947584493393   -1.45397584403499
H           0.83557054993299   -2.48648469115314   -1.91685394108788
O          -2.00481752116618   -0.01362319977867   -1.11332435610717
H          -2.92651221534018    0.24055016877791   -1.19717349006856
O           1.33982240833300    1.89681954124975   -0.63635496425450
H           0.57650811838893    1.90884824451632   -0.04036956444072
O           3.05133968144103   -0.29929069759114    0.08671608674277
H           3.92655793242821   -0.04236650574381   -0.20719368950787
H           1.98347322900824    1.29585464714167   -0.23535651837519
H           2.66486271789873   -0.83803866086216   -0.62096825776119
O           0.24999077749823    0.35968672902979   -2.55651615138664
H          -0.66529933978725    0.29023112261124   -2.22120529883331
H           0.66462314508631    1.07009517548688   -2.01922679123878
H           0.84974242318221   -0.91023474133782   -1.96221471407656
N           0.54076523385481   -1.02951837764711    1.03509635116179
H           0.01428655824551   -0.08116095872726    1.00680162366608
H           0.65864423645449   -1.38772953035980    0.04695957132338
H           1.47182567270244   -0.88260830732915    1.42496891422623
H          -0.03100341152937   -1.64927100703884    1.60353397272040
