    26
        -50.44342645  Gyration_radius:  2.65532305772 Dipole_moment: 8.915
 S          -1.65126625900462   -2.34480562037552    0.00289195903140
O          -0.82680726003077   -3.48028506483426   -0.28354140260780
O          -3.06364409951722   -2.49839660314463   -0.12765047733884
O          -1.38905793859300   -1.99734053138681    1.58796828949494
O          -1.13694084582123   -1.10000852110855   -0.62036655625866
H           0.44183240086387   -1.72403852166839   -0.23810078556735
H          -1.63465452241894   -2.82277116538948    1.99310680567572
O           1.37568359259549   -1.83447504502909    0.00960166550397
H           1.52694884294500   -2.77745733569867   -0.08544591803729
O           1.69692693099088    1.68831401265901    0.89736047614171
H           2.42187947961389    1.55615613714503    1.50874182359898
O          -0.20007996499759    0.93093501594119   -2.21185435406525
H          -0.63853563517106    0.13161521732881   -1.88487685784086
O          -0.48775209201838    3.01692091643880   -0.25272412803267
H          -0.43301109249508    3.83542215601774   -0.74818173483667
H          -0.49775496037225    1.65251399390551   -1.63999031621130
H           0.40359393023262    2.83096138152940    0.08102556202250
O           2.24797667643185    0.40399534023229   -1.22878293808001
H           1.45952053176678    0.59437261927618   -1.78322614000469
H           1.98002737819476    1.21598843172287    0.03374234126941
H           2.10370880587875   -0.49946355701754   -0.88521423652879
N          -0.74503959045792    0.65823335069589    1.19894069765567
H          -0.92200433005658   -0.06335315093021    0.40788939506054
H          -0.99570401032348    0.18901360736731    2.06562862841075
H           0.27199347800362    0.94739453214827    1.17989107293294
H          -1.30783944622162    1.49055839418584    1.02316712861144
