    26
        -50.46172227  Gyration_radius:  2.5200833597 Dipole_moment: 6.737
 S          -0.20308127800807   -2.10272904209807    0.76809072641759
O           0.61422115180740   -0.99229709748091    1.30251130082665
O          -1.03024911923465   -2.70812668163563    1.76402638485282
O          -0.95245313133442   -1.63644023469639   -0.39858551997740
O           0.83902536604658   -3.16595200353219    0.25022282335290
H           1.45003928711578   -2.69217252379241   -0.31521167633867
H          -2.47239948701689   -1.11396571721638    0.34425442038582
O           2.32120149408620   -0.50151611140273   -0.65993386576298
H           1.79968337503629   -0.67553367833869    0.14848693392555
O          -0.45801415743981    2.15209169260387   -1.03356961945750
H          -1.11093950561207    2.60425126972938   -1.56914335189271
O          -2.88906597541660   -0.79357017937979    1.16778295364326
H          -2.64173239533293   -1.48804229942941    1.79579807497821
O           0.16016561721367   -0.04778170110219   -2.17600554493008
H          -0.37659535065482   -0.69191197121577   -1.66786681108908
H          -0.23391037525777    1.29194930660505   -1.53582821839472
H           1.07213738290813   -0.21431229668046   -1.85087508642735
O           2.31183592500720    2.27838476684866   -0.54232536101483
H           2.59341502885431    0.42758882027454   -0.56727491447769
H           2.74034770022776    2.72462448278908   -1.27434874737081
H           1.35600015387855    2.36978379219842   -0.68102047504347
N          -0.98649092858471    1.02891341896031    1.35939106743115
H          -0.22944634893495    0.27220023054931    1.40579704400251
H          -1.88878088907033    0.47197450149076    1.34663385208538
H          -0.92919881678094    1.65046535993999    2.15890434476471
H          -0.85571474391394    1.55212389744686    0.46008928533613
