    26
        -50.44342650  Gyration_radius:  2.65556062553 Dipole_moment: 8.915
 S          -1.80780787022248   -1.71964403044667    1.41533611509153
O          -2.06716922119810   -2.87092190615017    0.60393453057980
O          -2.69311375255924   -1.45946720773505    2.50340762266405
O          -0.33530892706423   -1.98255833378496    2.09692075267019
O          -1.50346443127415   -0.51357978141418    0.60578853086337
H          -0.66257129050859   -1.60553951339870   -0.45623126113532
H          -0.49396070558322   -2.80484712713179    2.54902110098895
O          -0.04240211303982   -2.02338655864966   -1.07789600920330
H          -0.42361562698750   -2.89061200012900   -1.23206562026993
O          -1.38721986881148    1.61593515084301   -1.12238402279719
H          -1.69403018371132    0.89245094844554   -0.55632464834503
O           2.24068237962535    0.81741946572263   -0.92081847662507
H           3.01934707736405    0.31547616126243   -1.16288283927383
O           0.39281535890263    0.19728976058821   -2.55633869888229
H          -0.35116894573738    0.75037019984933   -2.23094169882493
H           1.54096263726222    0.59540346738479   -1.63491093250607
H           0.20637684696450   -0.70103432089297   -2.21988004916365
O           0.79921435441750    2.95549106036613    0.18066727326905
H           1.43163228675882    2.45182639698529   -0.35488844324586
H           0.78932001106436    3.84773157311254   -0.16887733815382
H          -0.81282751413729    2.16398342898806   -0.56931127308025
N           0.79169953321624    0.39986379106023    1.27933024494112
H           1.41792233514226    0.41179397036049    0.42716076087817
H           1.12370248611467   -0.24522354117822    1.99194827627718
H           0.71269300950629    1.35815682492163    1.61972675765709
H          -0.19170785550725    0.04362211101943    0.99050934564579
