    26
        -50.45004410  Gyration_radius:  2.53751859602 Dipole_moment: 6.018
 S          -1.79512179992490   -0.79991336761752    1.73041383257622
O          -0.60935646284956    0.02719389839506    1.67969075870082
O          -2.46744623778164   -0.90261714545126    2.96902842694025
O          -2.77901559312304   -0.30341476754740    0.63818345405378
O          -1.40770850455990   -2.22321050018541    1.24842532116182
H          -0.72994105853487   -2.17074221690975    0.51703755800271
H          -2.33956674284426    0.27720276914009   -0.04703507194571
O           0.46378713506529   -2.17574434008852   -0.54771571224446
H           0.78726259009584   -3.07124398033770   -0.65783033005927
O          -1.80190702203544    1.18472834654831   -1.24061529834225
H          -2.48425881844103    1.23330813074851   -1.91208855306146
O           2.05255938560211    1.60172560578464   -0.91155875957940
H           2.44048697577646    2.36000609608978   -1.34948095801361
O           0.27538140217199    0.00505622376282   -2.22538715564034
H           0.31337445386380   -0.85053958896178   -1.76823329862237
H          -1.01318404944860    0.72247185880079   -1.66592063229934
H           1.00768275859621    0.53521033074979   -1.85022150671480
O          -0.01442226061506    2.39710429703054    0.52657073222000
H          -0.17402626322247    1.63521648596072    1.11161478605750
H           1.33076514936360    1.95799165711195   -0.32752088649341
H          -0.73945837189915    2.35874299989022   -0.11073100154086
N           2.04555755393588   -0.73878106579482    0.89222619883540
H           2.78106401351542   -1.05946815707188    1.50735375770726
H           1.16343008876313   -1.66375150891062    0.00918489400754
H           1.28890411990434   -0.36014616433787    1.45892846656606
H           2.40515755861677    0.02361410318933    0.32568098773637
