    26
        -50.47114521  Gyration_radius:  2.41078040168 Dipole_moment: 3.638
 S          -1.59221600598943   -1.20276781145935    0.20393511504025
O          -1.82683464082003   -0.44588478450757   -1.01488610694123
O          -1.56997657782495   -0.35314327157631    1.38220812149789
O          -2.83460726073883   -2.17125558310256    0.36601198106430
O          -0.42877730874668   -2.07030549748845    0.12670655047132
H           0.49227626614098   -1.76005537739678    1.46612204476478
H          -3.56862919580952   -1.56728359585130    0.33126653843894
O           0.86385297450079   -1.28996370393837    2.24676062649277
H           0.07458704937634   -0.92806620990418    2.66740901763515
O           1.83156483599736    0.61641421941544   -1.63366964379841
H           2.54917100042623    0.67646411222476   -2.26523420380198
O          -0.52361270229040    2.08863517959996    1.26457048268071
H          -1.04092459405590    1.27000757254524    1.42119144877187
O           0.31200553498327   -1.38574220407779   -2.29472807335226
H          -0.56614255360991   -0.97147903430345   -2.29299589239158
H           1.28873261761239   -0.18097323474280   -1.90931697807767
H           0.27297184676744   -1.91953631807277   -1.47999815323179
O          -0.68728730692676    1.97007335896427   -1.36907701139018
H           0.19949771793190    1.68855147871869   -1.63127051944632
H          -1.21936223944627    1.15271095965617   -1.32486335458964
H          -0.67928481102004    2.29091254832695    0.31120699297953
N           1.76488162212949    0.90304311312829    1.08540119112678
H           2.57291230067111    1.34749153403100    1.50612769972717
H           1.90882179094399    0.75762555532116    0.06738535305700
H           1.54241884559949   -0.02288035391888    1.56088079771344
H           0.86396077417142    1.50740735841971    1.20885599556891
