    26
        -50.47114526  Gyration_radius:  2.41078107158 Dipole_moment: 3.636
 S          -1.11343761608244    1.03543249438621   -1.30789157407908
O          -1.81092399188192    1.13454228401167   -0.03626362885111
O          -1.06657908069127   -0.32926395391534   -1.80377342360278
O          -1.97267632463024    1.86651469029449   -2.34673806054099
O           0.19719044290904    1.66355085727467   -1.29506256316310
H           1.26890397218896    0.55202263425479   -1.89090307869112
H          -2.83368108412716    1.47159049339010   -2.26034210774732
O          -0.78580384526387   -2.36739226421353   -0.11893926339659
H          -1.00995684444496   -1.73296419112274   -0.83273389579513
O           1.65906746312158   -0.31448167332117   -2.14661073973985
H           0.91335392326316   -0.76450166408201   -2.56172660092190
O           1.18306444295034    0.22908544849730    2.22498484309930
H           1.69886733049694    0.46202779178573    2.99771201808896
O           0.16793459855981    2.40099875841012    1.22158246479515
H           0.45487141193280    2.37515707232156    0.29012695041644
H          -0.76846112583508    2.15838570531523    1.13944398074294
H           0.83444049679952    1.09439162859465    1.85603539673006
O          -1.48773998047045   -0.75802785633019    1.85457340830223
H          -1.75081121741595   -0.05935216620817    1.22547048904889
H          -1.19753583453364   -1.97489670331284    0.68755228350388
H          -0.63820037075210   -0.47375355262889    2.21776359114715
N           1.64237932292373   -1.54091845265063    0.19124449670850
H           1.59226782522470   -0.85963375368567    0.97329464038492
H           2.36907749093845   -2.22836040047971    0.35502439513881
H           0.66039782123986   -2.00875323766339    0.09703576041154
H           1.79399080359045   -1.03139999890909   -0.73085978197793
