    26
        -50.46949761  Gyration_radius:  2.56232714232 Dipole_moment: 5.889
 S           0.52606348941409   -0.18798530890609   -0.03849649607123
O           1.65589545137515   -0.30725524629521   -0.92347898914690
O          -0.70161000887161   -0.75786884431882   -0.62744657520737
O           0.74645323643268   -0.74267470907001    1.29280362122634
O           0.22720511666741    1.31770537142728    0.21280920826264
O          -0.11929369117613   -0.03322542273287   -3.13038682199609
H           0.79439686819134   -0.32713308318614   -3.19007810093790
H          -0.44363161819545   -0.40054498493181   -2.28755810861819
O          -0.41646229088828   -2.90481833933571    2.28154796662349
H           0.16177408961618   -2.22392076804599    1.86996846018794
H          -0.11045734973280   -2.99570868852392    3.18578801855584
O          -0.98232845705995    0.72579182646352    2.63632822792055
H          -0.93448701431978    1.58139693128282    2.20091210846684
H          -0.20374778759225    0.23656165312634    2.28584688518364
O           2.91335002504233    1.78049310461048   -1.98695287703282
H           2.55754346229000    0.94237662758520   -1.62384996689137
H           3.55730688387211    2.09411919854581   -1.35082798640829
O           0.28803652048688    2.38052120006893   -2.07130109378028
H           0.00808714822948    1.61869394749769   -2.62976082783591
H           0.21506156288248    1.79703018066118   -0.69933718691846
H           1.25810809729806    2.42783511997442   -2.18797942787777
N          -2.24854284340054   -1.21087539640675    1.36271514268869
H          -1.70380975204038   -1.04852463059395    0.44363703688225
H          -1.78486443498154   -2.04071108574274    1.80158023793029
H          -2.01838775770562   -0.37675177586708    1.96323060432720
H          -3.24165892585604   -1.34452688725487    1.21028693042627
