    26
        -50.44342645  Gyration_radius:  2.65544804884 Dipole_moment: 8.919
 S          -1.02705917184538   -2.67698778618378    0.06686389005003
O          -0.09855574091946   -3.53578937989120   -0.60506374147949
O          -2.34634822921594   -3.17074904152152    0.29309479994884
O          -0.38922387771853   -2.41968551244247    1.56003210939840
O          -1.00288571972618   -1.29139781653670   -0.46393620957355
H           0.71435384752170   -1.52716042818348   -0.62011969949426
H          -0.31909308746434   -3.31377123242230    1.87866470584387
O           1.68035068666907   -1.41929318101263   -0.65032635411135
H           1.99721086134088   -2.28079316468039   -0.93078238029517
O          -1.04273674409355    1.04715183178675   -1.90115317311960
H          -1.18021741439805    0.13647045675146   -1.60164522091343
O           1.47821046071941    1.97464567308295    0.67233126931727
H           2.36235958201183    1.97632561277381    1.03998179083785
O           1.64000775095634    1.07105962705971   -1.70076257291654
H           1.80360833235283    0.13312605493126   -1.48059137057120
H           0.70115717298430    1.10508267941587   -1.98822089769466
H           1.58835762551670    1.67018084895483   -0.29925871747453
O          -1.18346582233347    2.80424513165986    0.37181386513316
H          -1.30744419312933    1.61455976111969   -1.16349866668958
H          -0.21515155909227    2.82111714167104    0.42205790209541
H          -1.45750227273287    3.65181753097213    0.01830269102150
N          -0.48007720846810    0.33574508899823    1.44270053068657
H           0.39765578575634    0.87385618825440    1.20087448472235
H          -1.23607002226610    1.01077936783030    1.55777736600927
H          -0.72244637711915   -0.33199491818638    0.62248207829925
H          -0.35499465535050   -0.25854052421521    2.25838154097304
