    26
        -50.47114489  Gyration_radius:  2.41086970622 Dipole_moment: 3.645
 S          -1.78847686876855   -0.22175823666240   -0.88129392133119
O          -2.06519227176302    0.33279308454857    0.43394017910290
O          -1.20389955510769   -1.54958822177381   -0.80512195055163
O          -3.19314683540913   -0.38458025641259   -1.59410878964306
O          -1.02030628772251    0.67187198195964   -1.73173188035233
H           0.25505405562640   -0.20311400045970   -2.32005522639837
H          -3.67893850369037   -0.90922667795729   -0.96680070070719
O           0.50137866408159   -2.16390993093992    1.14038672297640
H          -0.19330755239828   -2.11547835801977    0.44945257857105
O           0.94009103628724   -0.90520553594128   -2.39910354612589
H           0.43936438368328   -1.70768994325096   -2.20926248984694
O           1.46334528883783    1.73289224474392    1.12245173395798
H           1.98121674724782    2.48706318254258    1.40618732994248
O          -0.34355099941213   -0.04525255514611    2.47215235420937
H          -1.07922625333282    0.08831746016515    1.84439939965510
H           0.18546415270558   -1.54416697479645    1.84055737075264
H           0.31243890361136    0.62916959514914    2.25031873531447
O          -0.72776119067894    2.59849730212056    0.02502650486059
H           0.64455028158202    2.11117539223135    0.68324002820893
H          -0.72841811825576    2.17108655660661   -0.85091976861588
H          -1.39766970817388    2.07376340664801    0.49297384025047
N           2.17210288941498   -0.61812904348686   -0.08158147610327
H           2.00332660555059    0.32437768361921    0.32026635338932
H           1.79285010464948   -0.66732862753909   -1.07480830962600
H           3.15753772004544   -0.85380653335038   -0.05246783864447
H           1.57117331138829   -1.33177298459599    0.48590277674705
