    26
        -50.47114548  Gyration_radius:  2.41069553951 Dipole_moment: 3.623
 S           0.37497575706361    1.26533374679833    1.51001936851015
O           1.51315732537639    1.38109880062933    0.61309919817849
O           0.27411607666174   -0.05768015620143    2.10163827185824
O           0.64803743071568    2.27564156968426    2.69848576066210
O          -0.87617618557622    1.69833001489434    0.90999470444564
H          -1.97744957171094    0.48664978006110    1.16292378988542
H           1.51364688336721    2.01330295871384    2.99281923667009
O          -0.20351385674634   -0.08652400283046   -2.52024192569780
H          -0.39161994740061    0.02047005992511   -3.45334658628377
O          -2.34152574135890   -0.40892351888958    1.34576735570605
H          -1.78054150780088   -0.71799771202868    2.06736225790669
O           0.91499281765789   -2.21981377564317    0.69242114223226
H           0.76359289931250   -1.51527202225910    1.35796679132337
O           0.08945607134918    2.26794223683465   -1.45992181900896
H           0.93622512587947    2.17093556132870   -0.99565796252949
H          -0.12499966642439    0.84158876403929   -2.14741103277988
H          -0.53989006475454    2.25818715985631   -0.71482990746158
O           2.17953089760927   -0.65551089499770   -1.02015557507132
H           2.09041589184576    0.11232716350735   -0.42369413370117
H           1.57345029290624   -1.82507860568007    0.07235999327554
H           1.52497667305771   -0.51947447331203   -1.71823768615426
N          -1.25367730528418   -1.76943942377327   -0.63830141113433
H          -1.77574964000718   -2.56266434286481   -0.99288990068647
H          -0.96377896153378   -1.13951799371369   -1.41142661624777
H          -1.81739116843961   -1.22847207384777    0.08445556866280
H          -0.35026054577106   -2.08543883024178   -0.11319889256293
