    26
        -50.47114476  Gyration_radius:  2.41087936283 Dipole_moment: 3.646
 S          -2.00565436930069    0.00942625429638    0.04000316293111
O          -1.61021780096778    1.39295251191800   -0.16925595965955
O          -1.57403837728935   -0.49513576342167    1.33220209903593
O          -3.58914208515886    0.00271509057084    0.05590937828783
O          -1.62224784607939   -0.86936564475428   -1.05193074967943
H          -0.83248440741671   -2.15765266495771   -0.37769586644751
H          -3.78776180599064    0.64640531201979    0.72735963035087
O          -0.32355302963423   -2.69865297045540    0.26786432076060
H          -0.75752166841934   -2.48935674776015    1.10369349609951
O           0.75753078991835    0.25742026238640    2.36558982059094
H          -0.16542125039059   -0.00775021483095    2.16511397071345
O           1.96394422667836    0.69115413786575   -1.43818473822237
H           2.62092453757178    0.87118688715579   -2.11155439997620
O           0.79958159087742    2.27208386494706    0.65785681059372
H           0.84797398625748    1.14511282324878    1.94378648960931
H           1.34525783163518    1.93525377379879   -0.06546637059285
H          -0.12363890164011    2.09966395260622    0.39148251211827
O          -0.39635860618441    0.94706363127428   -2.49541018417220
H          -0.83116976629379    1.53224182964285   -1.85356796510746
H           1.07388767778562    0.77443195015779   -1.89361284482831
H          -0.82832424950035    0.09573233414768   -2.29987480256735
N           1.83730690405869   -1.20427174115690    0.52926869123975
H           2.70464445898972   -1.68379157697099    0.74204105478511
H           1.95441767266359   -0.56650855281710   -0.28177843387062
H           1.05012421110323   -1.89578644354608    0.34230277659833
H           1.49194027671213   -0.60457228537406    1.37385809141894
