    26
        -50.46477384  Gyration_radius:  2.49514288997 Dipole_moment: 5.661
 S           0.89150444849164    0.30978446550264   -1.00361081622522
O           0.53931947193488    0.63177481105995   -2.46648093151288
O           0.34456453873727   -1.00194601700306   -0.67777300017312
O           2.33497769352459    0.35250107244714   -0.85625525333912
O           0.26029161786796    1.34944905285059   -0.15869618485161
O          -1.27453281391918   -2.33489674252705   -2.32833941020701
H          -0.72224829572331   -2.66323879986245   -3.03951704751538
H          -0.66277183961391   -1.98113857815713   -1.65066405143396
O           1.25740085089990   -0.54442727708710    3.18729958969312
H           0.39189330612959   -0.70347482734749    2.71978381646023
H           1.67539443443868   -1.40566100918696    3.24170760155754
O          -0.83023562781215   -1.03811494194956    1.69551507582049
H          -0.39297608033466   -1.14609442301051    0.82475659632093
H          -1.57837499537787   -0.45699266657943    1.51292552418785
O          -2.28409825709610    0.94415377214845    0.20512658587695
H          -1.31974428694927    1.13234275948628    0.09546698795635
H          -2.71419030589826    1.79318233503364    0.31856973488294
O          -1.98535773504517    0.24978765789163   -2.44848540474637
H          -1.95744111472185   -0.72827798293283   -2.51682821599527
H          -2.27063279071852    0.43618121846437   -1.53408052445046
H          -0.47346346131408    0.54984730217405   -2.53384782679510
N           2.18912048613321    1.27021049028911    1.52301314216382
H           2.75618159103546    2.02662423094652    1.89003239822421
H           1.93809501888192    0.54643794876859    2.26091042652757
H           1.28797096879194    1.59617266302071    1.08316472316627
H           2.59935317766887    0.81581349555867    0.65630646442898
