    26
        -50.44740098  Gyration_radius:  2.7298620971 Dipole_moment: 8.563
 S          -1.50500411763188   -1.85687237187362    1.83177148052638
O          -1.92240366751390   -2.33717000156250    0.52916133492403
O          -2.34310587223918   -2.18666310425179    2.93639035826496
O          -0.08968551006708   -2.62779290836089    2.11587212542523
O          -1.08616957262499   -0.44686419774555    1.75032755487033
H          -1.69908538155357   -0.19761066532825   -1.40178513596258
H          -0.33537705748677   -3.16833677167495    2.85939602454893
O          -1.24640240432411   -1.02791528489690   -1.59440077685820
H          -1.62318654638541   -1.65542110675845   -0.92705451054213
O           2.44746456222678    1.03510739873556   -0.85031344626008
H           3.27549760547613    1.08231557068499   -1.32871142949294
O          -1.21740146364839    1.52566939459886   -0.12912986307995
H          -1.35836655024862    0.87213757281185    0.57925851169859
O           0.32173486477937    1.29700036180055   -2.34883538037450
H          -0.01714631746914    0.50259057476086   -2.77118758324717
H          -0.30410336480603    1.48617359688197   -1.61441810472225
H           1.71846479451218    1.18241169286062   -1.51360449162018
O           1.00854094773473    2.97289836910429    0.62563225283159
H           1.16483003227772    3.81211736955000    0.19004492567497
H          -0.61402590959041    2.17444399465974    0.27358184426883
H           1.64831045526143    2.34140953595143    0.26344000641529
N           0.79678381031443   -0.95725109041823    0.09593839167719
H           1.13464868790142   -1.87739541659667    0.36585280495007
H           0.13896749930593   -0.63467718248339    0.88394870882463
H           1.56282215346948   -0.28718472737507   -0.08436830211728
H           0.14339830234476   -1.02312059305022   -0.73680729063581
