    26
        -50.44740097  Gyration_radius:  2.7297912846 Dipole_moment: 8.562
 S          -0.75069084093456   -2.52216887599337   -1.46381697735755
O          -0.23012705630010   -3.05517831921975   -0.22016846000070
O          -0.78570504018827   -3.41019681499587   -2.57805713948195
O          -2.31615640836970   -2.17658538620793   -1.13519882117334
O          -0.18199504579830   -1.18964421224226   -1.73045790690623
H           1.63108202231934   -1.16721525746980    0.93181951715556
H          -2.75270222582907   -2.79968843218177   -1.70664021284652
O           1.81112806460877    0.33434420634142   -0.65976844134592
H           1.24760824507702   -0.29991728935431   -1.13820571057845
O           0.89649991808736   -1.46825401283120    1.48063776689249
H           0.53081577100373   -2.23672087126723    0.97383282683138
O          -0.78381938857187    2.46200841913742    1.05306017931761
H          -1.15323065173177    3.08481321242608    1.67945990444935
O           1.45734065878816    1.35995272550866    1.82467084090404
H           1.39211355196256    0.57700840327391    2.37883500835840
H           1.72392794517596    1.02765410131544    0.93850887013362
H           0.07715415266745    2.13834844883388    1.43660467586955
O           0.79913930076177    2.83049282980688   -1.26270884457744
H           0.11620902765078    2.81457708248253   -0.57525033209675
H           1.35456137731746    3.59197296187831   -1.08929862426172
H           1.61079939778980    1.18623965056821   -1.08557642163007
N          -1.16533106252673   -0.18908190150454    0.40835820832416
H          -1.24000474726373    0.83197088058694    0.55037170375873
H          -0.41728351576062   -0.60757905693726    1.03281691407056
H          -2.05268707342061   -0.66942065890545    0.53306858701154
H          -0.81864636667057   -0.44773184295025   -0.57689710103450
