    26
        -50.46242457  Gyration_radius:  2.65977933951 Dipole_moment: 3.767
 S          -0.54348486788255    2.35189263716098   -0.23652806263070
O           0.28254602373144    2.22209104147652    0.95751911769183
O           0.19733924631743    2.30024378110996   -1.47154927079760
O          -1.65696914168410    1.39916765873416   -0.20561693364537
O          -1.19634325926689    3.79619650378427   -0.16241013502891
H          -1.54032931554266    3.85629850409211    0.72393153583442
H          -1.48846959337065    0.44166684476893   -1.60991168894807
O           2.19316600025436    0.94101169550792   -0.29584998807859
H           1.65526922026780    1.39311746421861    0.38799525165319
O          -0.62792004759019   -2.04355166559615    1.41247844994932
H          -1.48564299262547   -2.43010095701788    1.22555787782359
O          -0.99452802766907    0.05735564725007   -2.36493251250678
H          -0.47939613497168    0.81828149906916   -2.66657161807948
O          -1.24951968749245    0.36895865076096    2.17368287749894
H          -1.61388471823285    0.68133647142311    1.31754251920345
H          -0.82697590268331   -1.15937191176843    1.83208441362141
H          -0.48002992581385    0.94328151697211    2.28425111246050
O           1.43439883347313   -3.69677940427318    0.21706685347980
H           1.99066307084543   -4.33247862117143    0.66810233186475
H           1.99243824196833    1.46909209526212   -1.08084066347675
H           0.82174774560281   -3.34362530818268    0.87545930394410
N           0.73050930624073   -1.21704152425632   -0.80925800474565
H           0.05985643964883   -0.84662333150515   -1.54129549755652
H           1.22883327568394   -2.05645864113991   -1.10474560841677
H           1.40842609887616   -0.43726746865053   -0.57057376279186
H           0.18830009191553   -1.47669315801756    0.04441214165744
