    26
        -50.46242458  Gyration_radius:  2.6598188156 Dipole_moment: 3.772
 S           1.96606113178304    0.33511920256129   -1.38018249127256
O           2.14064134392281   -0.93635549028539   -0.68890552054539
O           1.06874917890850    0.27329079301608   -2.50615337741553
O           1.61289343063294    1.39796982606289   -0.43461950069889
O           3.39243701828162    0.71707429879204   -1.96088855415690
H           3.98860553086620    0.59197620207911   -1.22843867893419
H           0.11188569124512    2.01253149381249   -0.96679045466120
O          -0.73690597940129    0.10358144293789    2.45144675627577
H          -0.83176773019914    0.98419226948053    2.81967880109040
O          -0.73516929751997    1.97803909695312   -1.45991890286387
H          -0.45470403404119    1.58912935148654   -2.29974114362993
O          -0.16842924249834   -1.88107697168123   -1.48867739509418
H           0.71313465327143   -1.78306150989971   -1.07105787753210
O           1.78450213483241    0.03235556773166    1.79994824411696
H           0.24430252238264   -0.01393392574070    2.30743843489438
H           2.02410791236621   -0.75492219358167    1.29300841649015
H           1.75348629821127    0.72118907950474    1.10146594958994
O          -3.37098030727967   -0.96253837906527    1.86625181567787
H          -3.86284423395801   -1.59354142618017    2.39257144084892
H          -0.04787106164087   -1.38909889624180   -2.31270653383273
H          -2.55372329998784   -0.77418417227879    2.34596527100046
N          -1.62470698054355   -0.12873942724987   -0.12192595153795
H          -2.61696745020250   -0.33620233734715   -0.00930152661781
H          -1.22989562230502   -0.02821648780230    0.83940653554863
H          -1.12644455078150   -0.91817521974941   -0.62510067154783
H          -1.44039703641481    0.76359782254896   -0.66277306513575
