    26
        -50.46242444  Gyration_radius:  2.65987893501 Dipole_moment: 3.779
 S           0.62597544954959   -2.08317131349866   -1.07297524287212
O          -0.79271459761195   -2.17766581636242   -0.75172298164842
O           0.91327815178427   -1.28614989286853   -2.23891383354722
O           1.39908283046540   -1.66501323476025    0.09997919128860
O           1.09741841197433   -3.56044756115260   -1.40934016363579
H           0.74417051249279   -4.08972467381672   -0.70037476034831
H           2.19258854160387   -0.22678790447103   -0.35749622380513
O           2.33159656110226    0.57685259664551   -0.90252747787382
H           2.18468290644393    0.23452532729470   -1.79475424375843
O          -0.54994019325966    0.94331001527555    2.31625090918719
H           0.19837243236700    1.05632936220972    2.90559587201540
O          -1.38437033320485    0.06822639050015   -1.96507356305381
H          -1.44906194836709   -0.77317640989398   -1.46656064149721
O          -0.53599256866122   -1.62383764797589    1.87240566154573
H           0.31987769656413   -1.66328123875895    1.39371537086241
H          -0.66105131572261   -0.04474642179764    2.22324671832187
H          -1.16075409133869   -1.89414645687622    1.18621975989092
O          -1.30844365017055    3.53432887270445    1.25453197937296
H          -0.68172465778577   -0.13684130283170   -2.59797702147393
H          -1.29247480503128    2.75811094246908    1.82961876881867
H          -2.03792444122028    4.08161977134758    1.54682270113318
N          -0.02748021059212    1.61084221786843   -0.28090826848481
H          -0.66486355207347    1.08319868389721   -0.94442566215922
H          -0.21953714351256    2.61215433940702   -0.30866144792769
H          -0.21261390285142    1.29840671605926    0.69801591365340
H           0.97190390708467    1.36708464934084   -0.53469132398592
