    26
        -50.45565611  Gyration_radius:  2.61953325246 Dipole_moment: 8.204
 S          -1.17044004445478    1.19485677998032   -2.28893310563396
O          -1.04944186036614    1.63613526895710   -0.89956348586560
O          -1.34533165324294    2.23341417726512   -3.24994111786182
O           0.29066444620400    0.54850240417271   -2.62384341871000
O          -2.07233572316809    0.05232478500748   -2.38568462465047
H          -1.67618887801379    1.14845494946938    0.68338987608266
H           0.64539922473347    1.21645170322909   -3.20131492811891
O           0.69412538460364    0.62906654883966    2.71150830264032
H           1.04735401038655    0.96409976064333    3.53633500423838
O          -1.77452455063252    0.52416624214514    1.42934817428362
H          -0.99356187957089    0.65517462024605    1.99090430419740
O           1.42119545980093   -1.12374870805215   -0.60227375212817
H           1.57183175861830   -1.11192037427157   -1.55062353199494
O           1.79644365063613   -1.75813885052535    2.05354529624962
H           1.48329898900228   -2.65077342906854    2.20432742769137
H           1.85906982168614   -1.63738998404660    1.09153512104516
H           1.09917185461494   -0.25086663070107    2.56657331709022
O           1.35922315120801    1.36241905593797    0.09966102141508
H           0.49876339900199    1.59070612192936   -0.31958311391513
H           1.18685065823548    1.33545053496774    1.05385624643188
H           1.47351440204619   -0.14847765074794   -0.34210566053444
N          -1.26803583834682   -1.31658020863803   -0.38026306496665
H          -1.53144052681409   -0.70643942626228    0.45079430941885
H          -0.22419222184721   -1.34626214425559   -0.46413109516549
H          -1.67143654233862   -2.24414037996546   -0.31267780338857
H          -1.64997650216147   -0.79648516621986   -1.25083971792724
