    26
        -50.45738769  Gyration_radius:  2.43812401271 Dipole_moment: 3.218
 S          -1.02897846149512   -1.13310084417657   -1.58526837932783
O          -0.30782840691892   -2.36332658616164   -1.42838013006680
O          -1.82523899050244   -0.72375576346883   -0.44732578203870
O          -0.13891424846662   -0.03708779407161   -2.01645437532859
O          -2.04394524218030   -1.35016812610284   -2.78562738836749
H          -1.62967269767591   -2.05522130011397   -3.27194168065097
H           1.25980103382142   -0.54713706300068   -1.25792903269937
O           2.05191741719851   -0.72755596383981   -0.70897368466039
H           2.51434881880569   -1.44217554296232   -1.14905484330765
O          -0.12214735676468    2.24239455171339   -0.95281307653636
H          -0.16687756454566    1.37506739592039   -1.49995189130237
O           0.18606706456102    0.87000192579968    2.47198193853060
H           0.23662080323754    0.85086178724520    3.42758155882203
O           1.86093112791294    1.70962208343202    0.51004769591154
H           2.14948321843900    0.86313303609158    0.12554409901505
H           0.76091837497289    2.14510649496681   -0.39487043650820
H           1.37972212254945    1.48136872831592    1.33065894232684
O          -1.80200982269014    1.61218190382697    0.77483035188876
H          -2.00145112357433    0.73779270333368    0.36970436752426
H          -1.20920568175939    1.42104702758996    1.52981366938129
H          -0.90051832024982    2.11627660664998   -0.23212400719999
N           0.16131066024518   -1.52000831919534    1.44369981397588
H           0.11573247062628   -2.40078343896915    1.94008770484385
H           0.96935577388884   -1.55609012193947    0.82739838577930
H          -0.64839704441294   -1.47310720645931    0.82824571245196
H           0.17897607497670   -0.09533619442288    2.15112047754213
