    26
        -50.44109283  Gyration_radius:  2.58420740285 Dipole_moment: 5.872
 S           2.05076712799482   -1.33575384044450   -0.52189909429788
O           1.01876190409082   -2.23333147619045   -0.09601628216922
O           2.94679671330374   -1.77077032335129   -1.52963821008074
O           1.35561482522334    0.00773937983083   -0.97113484627276
O           2.84697509692696   -0.83105189740612    0.70223381627157
H           2.20543915050604   -0.55448036047843    1.41894036691153
H           0.71219924994444   -0.24704206529644   -1.70635365209094
O           1.26572400621768    0.13950253417879    2.52319471707581
H           1.85936087483666    0.56560157455779    3.14464231089792
O          -2.19796517028291    0.92273947769724    0.45895416051458
H          -3.02501928916600    1.06913834514938    0.91861740449991
O          -0.32139171208288   -0.51005286307256   -2.81760264440876
H           0.04086547289208   -0.39831791512035   -3.69858471042308
O          -1.78589085508813    1.58318235670078   -2.12171655027628
H          -2.04881926594198    1.30609319511495   -1.21948417604784
H          -1.22654324761119    2.35430499525999   -2.00591124181049
H          -0.96592872985632    0.22548201887970   -2.66497607701628
O           0.33064093032038    1.87923131699437    0.79715223236731
H           0.87833895925344    0.86679861901505    1.96097748716520
H           0.75744001007916    1.40274996480028    0.06833176944803
H          -0.61982591959818    1.67324415428237    0.72104447954300
N          -1.20136555384172   -1.30655206441387    1.36662020713552
H          -0.68731256906081   -1.07508845665490    2.21031512895391
H          -1.83100464793868   -2.06792098801222    1.58886060686406
H          -1.85223604083469    0.01080055370983    0.75948337122791
H          -0.50562132027989   -1.67624625573820    0.71394941600119
