    26
        -50.46571672  Gyration_radius:  2.43853944974 Dipole_moment: 5.128
 S          -0.73689624017306   -1.39964870215862    0.60005778047210
O          -0.53347638570819   -0.05930551709232    1.18332362394637
O          -2.10935202317986   -1.82807395842801    0.68488751528428
O          -0.39740447015834   -1.19339947685846   -0.95750787328527
O           0.26683745116968   -2.32932270966218    1.04053594822255
H           1.63809072581512   -1.40882780496356    2.56474815920443
H          -1.05749072556517   -0.55145164808852   -1.32286980430230
O          -2.17133856078823    0.57489827231894   -1.74770748732709
H          -2.79385168027651    0.22986218708744   -2.39005667394029
O           1.79344640320851   -0.50026649028080    2.28388204531317
H           0.89272005475494   -0.18243590812187    2.03655629872968
O           2.40975874101679    1.67421419697985   -1.18526969296628
H           2.90903795198718    2.30032591655426   -0.65806546142559
O          -3.24836512464618    0.50798956787438    0.61343930094328
H          -2.67392696627777    0.64183015486958   -0.88242248052125
H          -2.98454412954085   -0.43759829470257    0.71959878729770
H          -2.66589353214428    0.98507836852560    1.21179433357756
O          -0.08638370621676    1.97508968530679   -0.46949403655125
H          -0.74962460893393    1.80851223692550   -1.14917858682551
H          -0.24049017796706    1.28678729246307    0.21328158790661
H           1.45082529905101    1.86967835054186   -0.99696686939175
N           2.23870590019548   -0.80368423054508   -0.29324822250648
H           2.19258561838998   -0.71475193813821    0.77502650795978
H           2.93651716828429   -1.48515435216927   -0.57385534921064
H           1.29697748732392   -1.11768080500392   -0.59057530047130
H           2.42353554037684    0.15733560677438   -0.70991404013804
