    26
        -50.45565614  Gyration_radius:  2.61965440161 Dipole_moment: 8.200
 S           1.34688984782793    2.13751110621473   -1.28608170448109
O          -0.06260240798979    1.75022691557097   -1.23242071816447
O           1.59535564632701    3.51070289029114   -1.57813570658614
O           1.86986630515153    1.92853514183276    0.24610655969642
O           2.11832888889779    1.15576171507904   -2.04042303770283
H          -1.07227601160064    0.41435799013293   -1.81022080426474
H           1.96090009501091    2.83496252682176    0.52084530228719
O           1.00944372063300   -0.46219729674291    1.55202036199585
H           1.78327668989462    0.08496336767317    1.70702227533880
O          -2.65725657138167   -0.90568356422407    0.58728951910333
H          -3.55512200222081   -1.04762167837947    0.88899672948036
O          -1.34707618320954   -0.52341262212918   -1.83877631262834
H          -1.94499682598369   -0.64927444556057   -1.08443761507909
O          -0.88897193766690   -2.41343967918477    1.98180602200545
H          -2.08648388350604   -1.51517038409937    1.09924433318338
H          -0.50491298042488   -3.26706625757882    1.77834853607986
H          -0.15634677492081   -1.77763865946618    2.03697610907815
O          -0.92860743963977    1.20623080390835    1.18179360962242
H           0.25591531147434    0.20802666668732    1.48312125181288
H          -0.63856319029332    1.54318447339706    0.30388791578262
H          -1.69712301474461    0.64139709988341    1.00490203940208
N           1.12957733625083   -1.00567282709732   -1.09530114262342
H           1.60177623672906   -0.13227045141315   -1.52934412355989
H           0.12267243325231   -0.98188300729940   -1.43891571659316
H           1.60873371735819   -1.85127766152979   -1.38342253902218
H           1.13760300497405   -0.88325217285462   -0.05488113421934
