    26
        -50.46571660  Gyration_radius:  2.43850858783 Dipole_moment: 5.125
 S          -0.29346946863492    1.62824196834460    0.35025768182750
O          -0.23469264048935    0.88369781303786   -0.92265479946850
O          -1.50064642880523    2.40434222749767    0.47183532523102
O          -0.35540880879444    0.47266071388350    1.46575611517218
O           0.94634691446398    2.29848991814443    0.63209501403555
H           2.41156338036745    2.07630598198013   -1.05718349485687
H          -1.19444142730399   -0.03390919751533    1.32192356454521
O           1.70733460749592   -2.66432420190269    0.03034646426873
H           2.17669911958391   -2.98116893653367   -0.74332596789628
O          -2.57574631000760   -0.81163135708555    0.90135677187849
H          -3.24443108424567   -0.73578588185838    1.58422461887695
O           2.31831931429758    1.17598077112709   -1.38765374959562
H           1.34059097429127    1.05363604845036   -1.43869756197105
O          -3.06571318542148    0.91491660535202   -0.97457463805091
H          -2.87638657278713   -0.21734519063995    0.15157585860186
H          -2.60328008657030    1.62023341859412   -0.46109400104362
H          -2.47087489962326    0.72588585736205   -1.70623242607761
O          -0.57845835262426   -1.75196443338590   -0.85113687274414
H           0.79428338485052   -2.42501699476147   -0.28929793304508
H          -1.32920557548328   -1.82333741661606   -0.25043204959056
H          -0.43767246419925   -0.78801875386388   -0.97240973580974
N           2.23203876006492   -0.21073046704226    0.84857215333848
H           1.32910707342929    0.13198894360914    1.22412391073892
H           2.97093584598412   -0.05728898773801    1.52721257150750
H           2.12588007718784   -1.23786700451449    0.59347034549781
H           2.40732787297776    0.35200856607440   -0.04805716537369
