    26
        -50.46571666  Gyration_radius:  2.43855114959 Dipole_moment: 5.125
 S          -0.97889048121362   -0.50703525869120    1.28286611350543
O          -1.29210247442464    0.13387100314888   -0.00917840275602
O          -1.76698223784825   -1.69130068498184    1.50842691600335
O           0.54931007855645   -0.97619346868518    1.11527632426286
O          -0.91876655794630    0.45210932686888    2.35158235347645
H          -1.48805424147571    2.51082287846936    1.65195711956923
H           0.57690869570979   -1.64169503210470    0.38202456491835
O           0.46074813358678   -2.66219857125602   -0.89653002770682
H           0.68021213115069   -3.56228942657808   -0.64979819557781
O          -1.10763641850892    2.61880980381276    0.77323072494202
H          -1.32350978677328    1.76611887534094    0.32640353392278
O           2.33845722685514    1.67640050430025   -1.31766785328392
H           2.17254302215636    2.44938471883922   -1.86010139765342
O           0.49335346978412   -0.05664744706698   -1.97047355846789
H          -0.21882756717636    0.06752650545634   -1.30635408575480
H           1.71005184155299    0.97706335403376   -1.64809224741455
H           0.73747824894370   -0.98721640348032   -1.90690908967403
O          -2.12084192634144   -2.39790570034844   -0.96843141632065
H          -0.53319187151841   -2.64542172840174   -1.02912690788939
H          -2.14297851291792   -2.24083255746781    0.00618929801989
H          -2.31439312345809   -1.53733516002856   -1.35164127515054
N           1.32002927626517    1.65989811043589    1.11698353932979
H           1.08501826220770    0.66541350940978    1.28892479823202
H           1.83543461050752    1.73164479055861    0.18936584678972
H           0.38032773155957    2.17086059594032    1.03109873682443
H           1.86630248076726    2.02614747249638    1.88997459782516
