    26
        -50.45565614  Gyration_radius:  2.61949295118 Dipole_moment: 8.212
 S          -0.36948930309797    0.30291708571987    2.79429889705385
O           0.82467150089593    0.10406360364462    1.97325009541419
O          -0.14727941161495    0.91510801132018    4.06259929619449
O          -1.25072341860124    1.38638898531337    1.94903494495988
O          -1.20473972852942   -0.89296232062289    2.77989632007746
H           1.51362751997965   -1.17599243298913    0.96194019122525
H          -1.13755762099618    2.15922295039162    2.49248018291719
O          -1.41173108565580    0.94647646004789   -0.86759908535620
H          -2.00974437125793    1.40474990374143   -0.27196081515449
O           1.51055916379430   -1.77642264362331    0.19035771220256
H           1.86916402065366   -1.26120315450799   -0.55011495646367
O           2.09463997232150   -0.10414518589828   -1.95684256390304
H           2.82549912635504    0.04223818365335   -2.55832229139636
O          -0.29197250662374    0.07464154244170   -3.23079764751636
H          -0.85470063107835   -0.60079314186691   -3.61124912127004
H          -0.80577267568204    0.51311827470934   -2.53257019681140
H           1.27593228546732   -0.07455909036491   -2.49332438628146
O           0.95520971117981    1.67075570855164   -0.12523139600645
H           1.54944015682827    1.18040227260794   -0.71459870591634
H          -0.50176895482148    1.30083540363855   -0.60722756926000
H           0.97091555762474    1.18652878377762    0.73128088509883
N          -1.10069450850274   -1.47761157877922    0.29178990266208
H          -1.19943094742145   -1.28256196888902    1.35297463812051
H          -1.29950724859535   -0.58112416398328   -0.21262665571091
H          -0.07887825215847   -1.73738575736225    0.14701062184543
H          -1.72566836052394   -2.22268575067939    0.00555169328505
