    26
        -50.45565616  Gyration_radius:  2.61975000861 Dipole_moment: 8.203
 S           1.28628716329914   -2.46653174225258    0.54591475557607
O           0.64490743391330   -1.93321804925808   -0.65567609726969
O           2.25455799588090   -3.48900297744341    0.32276893278147
O           2.13358293293333   -1.20081717219934    1.13311551168510
O           0.29453282957906   -2.71754830524878    1.58597009716113
H          -0.98970277300013   -1.49415998118532   -1.17869976959884
H           3.02017987707503   -1.47704505639311    0.92534266628560
O          -1.80887270204581   -0.96282028492587   -1.12944338300834
H          -1.63410534612076   -0.15566564742428   -1.63971059333660
O          -1.06893005382787    1.49811526626756   -2.19940824756602
H          -1.24390137076702    2.00170033737024   -2.99509463233194
O           0.78857738145356    1.31874671302921    1.13067136040672
H           1.50534967501165    0.99721427992009    1.68309316784391
O           1.36909189994859    0.51442832965324   -1.25559370416694
H           1.07370480838710    1.05659209957164    0.19715129951412
H           1.20784199898133   -0.44482339192116   -1.10697050147924
H           0.62653957336025    0.82418655971776   -1.79741724628610
O          -0.98285497340927    3.09510906930922   -0.01128451105413
H          -1.66136446239644    3.31027215571892    0.62973515333542
H          -0.26465143229508    2.65385105950643    0.47181308711948
H          -1.10176319931083    2.12961280347586   -1.45141522265384
N          -1.11152326424164   -0.59091523368000    1.37953907281929
H          -0.42195546504765    0.19758441228771    1.36358962364805
H          -1.55278850015783   -0.68431151584347    0.41571307541613
H          -0.55395510859342   -1.50778986120631    1.53045285970964
H          -1.80878490859640   -0.47276388681306    2.10584322545302
