    26
        -50.45565605  Gyration_radius:  2.61948126461 Dipole_moment: 8.219
 S           0.42788687600082    2.78448946648425   -0.31764692341612
O          -0.73935656976090    2.00784171877307    0.09958030919584
O           0.45102307622794    4.14110279099928    0.12032295854852
O           1.67328255999544    2.06758215838574    0.45687562128811
O           0.72541342787129    2.54393940366499   -1.72534913282480
H          -1.86444806823999    0.85198328944831   -0.63091682273853
H           1.86639345047234    2.72654088834550    1.11558447143162
O           1.68003672259625   -0.78814660204378    0.44762458662738
H           2.40382381808728   -0.16282554578998    0.53425017366119
O          -1.94533327900405   -1.83509096215147    1.03642094359325
H          -2.55276373132496   -2.36770397928791    1.55093381069298
O          -2.08955523893451   -0.00084597556892   -1.05268961378187
H          -2.20896206036463   -0.63405573471328   -0.32669590309665
O          -0.21930762326578    0.18107889532511    1.90750648058056
H          -0.43376107424082    0.95372933136846    1.33719593532159
H          -0.95189070086150   -0.44362350738480    1.78917265565115
H           0.98010949927132   -0.42869985927097    1.08186795382640
O           0.33235632743262   -3.19298166698388    0.46963990510336
H           0.96960195235775   -2.46480564296608    0.55564581293625
H          -1.17586320363292   -2.40396169945546    0.82870464635491
H           0.59102703272246   -3.70301603580017   -0.29879123778307
N           0.42780029265558    0.00500378073472   -1.81525384196889
H          -0.61219809846896   -0.12310984461642   -1.62954754162599
H           0.58349790869957    1.07677708742549   -1.84712361003597
H           0.96849688247136   -0.36735558286164   -0.99880042157925
H           0.71268980119132   -0.42384617204810   -2.68851124594315
