    26
        -50.44906632  Gyration_radius:  2.63496172931 Dipole_moment: 5.957
 S          -2.00649794146289    1.08407242528522   -1.34239924494841
O          -1.83994103844807   -0.24329912994682   -0.72967799301100
O          -2.29529045932277    2.11847789880470   -0.39777621572056
O          -0.86769197736044    1.36760431564120   -2.21779538230532
O          -3.27028910743685    0.95547989185924   -2.29564753619767
H          -3.07256287948697    0.24938462222649   -2.90542246986822
H          -0.16843705980772   -0.20548033730656   -2.74853740748000
O           1.80158810248137   -2.15522494859980    1.14252934542030
H           2.63573393429663   -2.54854504871455    1.40281644361985
O          -0.08519427742102   -1.12046069141134   -2.41295460587528
H          -0.78379410990201   -1.12092332695393   -1.71765471041487
O           0.93896354979400    1.48262327971498   -0.29855996070769
H           0.32895313342638    1.63284455767380   -1.05640409027454
O           1.91921297190928   -0.72091719451406   -0.94873100108456
H           1.86977610856498   -1.33601396103396   -0.12649281195707
H           1.15833080621358   -1.00802408982511   -1.60923985395694
H           1.60382701449537    0.24604530243505   -0.63965323332682
O          -0.95333362058692    0.84116320995895    1.49316514698010
H          -1.50815040975096    1.61527573044988    1.31333599867193
H          -1.30723534754088    0.19046369754872    0.85279588187249
H           0.35155092517041    1.32555474090501    0.47576490023410
N           1.11382215786923   -0.46830996692022    3.04814571787531
H           1.51774607140090   -1.53998787664324    1.88973077758013
H           0.79880236791951   -0.89080903505062    3.91252269234933
H           1.80427675082754    0.23563040364148    3.27935170609000
H           0.31583437411981    0.01337554058777    2.63678788634734
