    26
        -50.46571670  Gyration_radius:  2.43848102524 Dipole_moment: 5.128
 S           0.34316920698765   -0.94491934944472    1.36035260691262
O          -0.42513078813325   -1.22125283657450    0.13098564574469
O           1.32798887879449   -1.96143893448857    1.62722982401724
O           1.13739870001458    0.40988143230688    1.01761552327799
O          -0.51421559229530   -0.56320188440488    2.44892830125327
H          -2.68511286963056   -0.70231615755122    1.88282776588738
H           1.74875050351331    0.21324701567579    0.26337529882105
O          -2.75381338416020   -0.39148370063134    0.97332999168687
H          -1.99952709093062   -0.84070147096595    0.52300126432851
O          -1.17167028365315    2.52893903276096   -1.49758966735433
H          -1.99156060520419    2.49803182023904   -1.99367303687137
O           2.64121017897689   -0.25585877761216   -1.03024717842428
H           3.58029378228252   -0.22830310517956   -0.83904472409830
O           1.79344424400656   -2.70064001642581   -0.82153069415297
H           0.89089135653481   -2.72449725835389   -1.15279479105605
H           2.39181050457779   -1.22688364217371   -1.05691708001547
H           1.69149197877685   -2.59408322922207    0.15484237135340
O           0.05426248739523    0.27821394040469   -2.01180228662947
H          -0.65459418629157    1.72650128945310   -1.78393485678101
H           1.01803546624234    0.30468644208814   -2.00566666721459
H          -0.19061962896455   -0.31982473428807   -1.27282106838517
N          -1.24945933485405    1.76842204291095    1.02828617138373
H          -1.25452333336555    2.19658409528421    0.05459502800031
H          -1.43703548301929    2.45532004868250    1.75152541350315
H          -1.96498133327796    0.96946118971625    1.05872685056578
H          -0.32650338435872    1.32611674751152    1.19040000410829
