    26
        -50.46846765  Gyration_radius:  2.39934946628 Dipole_moment: 5.641
 S          -1.32604958573559    1.22963404449870    0.20725072523275
O          -0.46616767382390    1.38382893734177   -0.99150503411621
O          -1.56972600683655    2.48874775151275    0.85726959101289
O          -2.67837992113962    0.64092272639573   -0.29626303687736
O          -0.72378038423129    0.24873564251914    1.10297250330533
H           0.27976468319071    1.50040806083287    2.89959359331149
H          -2.47866346952570   -0.27782587574548   -0.59794198550186
O           0.57703109343123    2.26209855937913    2.39263527222438
H          -0.22831574424057    2.53669625028453    1.89528181114285
O          -2.01824074845824   -1.75237593701702   -1.25954377378840
H          -2.65596943989598   -1.96963741336632   -1.94172144977780
O           2.06059998110389   -1.39642696102236   -0.17044213111639
H           2.77013080795953   -1.99886224758195    0.05607355617527
O           0.19829340716524   -0.82359281449176   -2.27967371235871
H          -0.04033515534025    0.06993208690780   -1.94875570744210
H           0.95655473993560   -1.10143496525531   -1.74767368480488
H          -1.18012671882678   -1.48378388028828   -1.73110044556928
O          -0.16537490626978   -2.28031463933764    0.83873846660418
H          -0.82395072608337   -2.54008751532724    0.18392583662216
H           1.22897076697922   -1.78562088758380    0.23596148013764
H          -0.43490930332910   -1.36784882540269    1.09086397600637
N           1.78482247775887    1.28562705816126    0.24424829125846
H           2.00144096957487    0.26605567451349    0.24135810721390
H           0.91482842285859    1.40338702470502   -0.37635274689557
H           1.45068468395716    1.62795660991387    1.19341078639096
H           2.56686773981853    1.83378154544741   -0.09861026838584
