    26
        -50.46846776  Gyration_radius:  2.3995757561 Dipole_moment: 5.639
 S          -1.62335401352306   -0.59483924090099    0.56979737813776
O          -0.85141005815676   -1.51357882764107   -0.30217590163518
O          -2.21601411145080   -1.28471248559181    1.68344473144715
O          -0.75867890302270    0.50169145708596    0.99085028091728
O          -2.75146172743664    0.00941576832484   -0.31979211617019
H          -2.29667333635773    0.58668517979920   -0.97912422637012
H          -0.14768828511338    0.04051446658207    3.27654853756672
O           2.37491505865835    0.56510366307060   -0.51662803700075
H           3.22922993760544    0.99812889053591   -0.50017697721799
O          -1.43434049499599    1.39405903039161   -2.17494909043447
H          -1.98661863067897    1.41687303689319   -2.95834765191165
O          -0.08562097954564   -0.91750144110690    3.21444068526370
H          -0.93891066324570   -1.17712743674693    2.79516110573411
O           0.41415816050311   -0.44106679474167   -2.35709201479984
H          -0.71230461887302    0.72903004652305   -2.35717229353146
H           1.22368323025984   -0.14903564924463   -1.91597863179006
H          -0.07020386086776   -0.97397188330037   -1.68915624118903
O           0.50441444989333    2.35916833063844   -0.32487053819704
H          -0.01527082036392    1.78055709015723    0.27860677872765
H           1.69310306207480    1.29885212819596   -0.44609056952158
H          -0.05575782700301    2.43546327595168   -1.10614431113780
N           1.33968014063605   -1.42350348066316    1.03727810802388
H           1.84172714410618   -0.62260039906720    0.59807463697225
H           1.92775266018525   -2.24882305819620    1.08867616535055
H           0.92684559262559   -1.17542113885091    1.98475826138671
H           0.46879889408841   -1.59336050809912    0.43006196137953
