    26
        -50.44877563  Gyration_radius:  2.46895745658 Dipole_moment: 6.593
 S           1.14687244848348    1.03499122561401    1.58666938466319
O           1.11789624372425   -0.37070010727148    1.25593064700329
O           2.33516431453174    1.54089418813177    2.16057402919880
O           0.76937763812602    1.82498746687081    0.28585553425565
O          -0.06091948729152    1.36227785750172    2.48123794348081
H          -0.89612068066352    0.95130004887439    2.09927546661466
H           1.54078595711983    1.75145102837765   -0.37536101643308
O          -0.75818622717813   -1.33219786048253   -1.86261671415513
H          -1.20986414335427   -1.90593679024797   -2.48218749500716
O           2.54595336800926    1.43038438156186   -1.47328379099781
H           2.29236426328966    1.73563931857240   -2.34731716602207
O          -2.26345311679247    0.48407971200155    1.46055321816580
H          -2.93285442689590    1.10090649841115    1.76363902237141
O           1.92556858692127   -1.07985526451103   -1.23480541792704
H           1.77423678784324   -1.00385676444315   -0.27610670219253
H           1.04011240614943   -1.20730371781809   -1.61740018710461
H           2.45828131487242    0.43416996177288   -1.47677699082085
O          -1.59415576919187    1.10132671237310   -0.98009498739288
H          -2.10997928306573    0.68933663506668    0.49269626971005
H          -0.77372889220046    1.53179815223969   -0.69763565081897
H          -1.32403520132782    0.27294559449599   -1.42308198644042
N          -1.04611762104256   -2.14542999588886    0.62269772466559
H          -1.85031422253002   -1.71685916734348    1.06636713391547
H          -0.22654514940094   -1.65864267533526    0.98524741927923
H          -0.99306856538026   -3.10906910552770    0.92702461041036
H          -0.90727053277410   -1.71663735299547   -0.94110027836165
