    26
        -50.44109285  Gyration_radius:  2.58404580798 Dipole_moment: 5.869
 S          -0.00007131158024   -1.02670343233388   -2.28165093987371
O          -1.04107963960124   -1.63725689718375   -1.50991717701092
O          -0.22383129750066   -0.81597315016473   -3.66489060354199
O           0.36507588844277    0.34222212910742   -1.58693848839842
O           1.32502574135426   -1.79452188223606   -2.07790387319639
H           1.45817482650968   -1.96277352868388   -1.10035465106000
H          -0.48999194394804    0.87887166323927   -1.56838419473546
O           1.87940876542861   -2.06327255815555    0.44781356249167
H           2.77926433132802   -2.39552900284018    0.45566325699595
O          -1.73100176138129    1.78399748185190   -1.45606288639389
H          -1.81806049390830    2.39187648441143   -2.19281757587431
O          -0.40134695683208    0.84717462704131    2.23958495678085
H          -0.57411620583944    0.82980438719819    3.18115449475264
O           1.85373902946286    0.54324130721098    0.74164897201953
H           1.13666919899760    0.71913447010985    1.37924958910228
H           1.93767940344325   -1.08938627934232    0.65574807013401
H           1.45183698566603    0.64868318501510   -0.13451907510975
O          -0.78679509740519    3.01775459660547    0.68785038717875
H          -1.51187221948177    2.31898778545704   -0.65250552939508
H          -0.75187421283391    2.26106728965500    1.30926467290702
H           0.12501938217222    3.27970607768269    0.54331152800559
N          -1.03111510044443   -1.50061270525380    1.30234135238172
H          -0.22063209758993   -2.09607185188225    1.43693745604549
H          -1.17219393307140   -1.45388943509800    0.29013361707490
H          -1.83396204709166   -1.98083184532712    1.69007925456598
H          -0.72394922428913   -0.04569891607443    1.86516382415316
