    26
        -50.44877568  Gyration_radius:  2.46897082359 Dipole_moment: 6.594
 S          -0.54140685272292   -2.10780136376443    0.41033791091788
O           0.42719115033331   -1.58418131806383   -0.52449612631123
O          -0.29797886259816   -3.39412144092596    0.94287193686076
O          -0.70299186446794   -1.04670388613349    1.55335187799790
O          -1.93751147523229   -2.05067194660094   -0.23303131121233
H          -2.08534770646587   -1.15200167046415   -0.66051514501225
H           0.14649075724397   -1.04147940518336    2.11559769788246
O           1.49113688096213   -0.81748143568236    2.79405504792351
H           1.51711308419849   -0.06267583083323    3.38651886243036
O           1.10126306104960    2.11579142412724   -0.36002492808028
H           1.41258392057106    2.97235289408193   -0.65399186423575
O          -2.44545775559197    0.29106291262225   -1.19387521474982
H          -3.39678415704652    0.38434021244626   -1.11209035114354
O          -1.30376895333216    1.55197192239987    0.77904263448902
H          -2.04430769518339    0.87071883392267   -0.48289831955160
H          -1.13433311059573    0.73302772068622    1.26772335731396
H          -0.43264992966146    1.85880457087573    0.45903145549584
O           2.47752376965441   -0.12862831473650    0.49314046606069
H           2.03151874905352   -0.57329900797411    1.98870416540756
H           1.91384202218024   -0.75552899090370    0.00630442877796
H           2.12597433886927    0.74998933134601    0.26691294322834
N           0.31397736748005    0.61087326052884   -2.36922786692920
H           0.41508134764234   -0.27711523695018   -1.87798322855147
H           0.83070179788104    1.60069695810975   -1.18505737722016
H           0.79445355656493    0.53005430684430   -3.25615480314929
H          -0.67631341077664    0.72200550021570   -2.55424625861970
