    26
        -50.44877585  Gyration_radius:  2.46867690798 Dipole_moment: 6.602
 S           1.31830354629282   -0.12153124865690   -1.77589850321099
O          -0.00706347823398   -0.66540532444956   -1.59192957542486
O           1.69942634413841    0.22277454402622   -3.09253145737083
O           1.45322384350438    1.10717657837252   -0.81112496629590
O           2.34424615964602   -1.08595190853293   -1.15666232361961
H           2.04294737215440   -1.37020553509650   -0.23979154162846
H           0.86621208149197    1.86276821604997   -1.16111994938445
O           1.71473900623423   -1.71498433365825    1.26675761115371
H           2.55537952464672   -1.86793432675279    1.70304344976860
O          -1.80348015741889    0.31565211497963    1.56746979558866
H          -2.45980708439618    0.26717098219281    2.26317704266050
O          -0.19900110706038    2.89649437348288   -1.50014188713557
H          -0.29651676943746    3.59377228512735   -0.84771253114646
O           0.87551489545797    0.67590513256062    1.87104654319722
H           1.15092509307748    1.04008704670669    1.01685488116032
H          -0.10143509622305    0.65115267143019    1.84979589425624
H           1.37935556725737   -0.83398464999373    1.60414795859229
O          -2.01372700517352    1.08719879389997   -1.08238645871429
H          -1.44884622203829    0.36907246435087   -1.41834612932854
H          -2.06557182363337    0.93536890238877   -0.12275156376381
H          -1.00876090162091    2.31423009845836   -1.42567999608832
N          -1.20791632855407   -2.06056894454525    0.60881480975034
H          -0.84860810879489   -1.72377070952597   -0.28428931543447
H          -1.64027560268687   -0.62844729014230    1.24903014050473
H          -1.87928282951154   -2.79268357649011    0.41561091949468
H          -0.41998090911792   -2.47335635616215    1.09461715240957
