    26
        -50.44109288  Gyration_radius:  2.58407608751 Dipole_moment: 5.864
 S          -0.21015683052194   -2.49125308017749   -0.08887196441871
O          -1.23209659778860   -1.97999036178556    0.77497306157433
O          -0.51154397493722   -3.61731790257482   -0.89434042354042
O           0.27975461403885   -1.30027771636007   -1.00084323814531
O           1.07807104343226   -2.75826215248009    0.72111719281937
H           1.26397034461553   -1.96986220851886    1.30884219766893
H          -0.53877845451857   -0.97589780463523   -1.49480001380313
O          -1.71408342327477   -0.37223339370634   -2.28709991745928
H          -1.81346836112639   -0.75628282210847   -3.16034775104731
O          -0.20317293005665    2.40975755574308    0.22053115537715
H          -0.31601301483582    3.25943814682197    0.64719400472919
O           1.77828367140294   -0.66544168848972    2.09551869226993
H           2.65545133030746   -0.88081811326700    2.41854834039079
O           1.92690196143117    0.74351799908346   -0.11213687098994
H           1.47535436437069    0.04047067495109   -0.60426323409446
H           1.26523482657536    1.45239241249587   -0.00602197816785
H           1.90781089789756   -0.05668927496650    1.31596747983660
O          -0.55655569088430    2.00527731464556   -2.42104504263088
H          -1.41033513202256    0.56233115310997   -2.40546166604972
H          -0.52728213501383    2.22674528401751   -1.46712766681558
H           0.35804043254715    1.91194557455228   -2.69614885861445
N          -1.03166917101107    0.59502484784797    1.89629690738735
H          -1.83558925149605    0.79888998257571    2.47742429401938
H          -1.23429910769554   -0.27829881979475    1.40341026726542
H          -0.60206667614790    1.71069760280434    0.84776672730788
H          -0.25176274527648    0.38613680020873    2.51091832513091
