    26
        -50.46949756  Gyration_radius:  2.56260282895 Dipole_moment: 5.889
 S          -0.34505755799915    0.41776617360903    0.13851680227562
O           0.53214063237017    0.49050462386478   -1.14400304954329
O          -0.44554061593642   -1.01304588799254    0.48698284164823
O           0.43091652462585    1.12592238958344    1.15098689592503
O          -1.63394471830341    0.99989502544316   -0.13292726559161
O          -2.48446516068595   -1.51207847389118   -1.16309134341181
H          -3.06688564622756   -0.77750511390194   -0.94901666250770
H          -1.78099424714656   -1.47541859502639   -0.48908362383207
O           2.85010874650582    0.42068285264478    0.37556058736446
H           2.02735153047396    0.87760871809407    0.66295797495891
H           2.77915652186692    0.39494947818542   -0.58267820567045
O           1.01214535939586    0.22388018705219    3.56995550612745
H           0.64812719594931    0.65008816328587    2.76166258420953
H           1.56930830271426    0.88449155645057    3.98553563021796
O          -2.34741716822196    1.94455828275224   -2.51412714682006
H          -2.18245063961265    1.66804641319483   -1.58826671654807
H          -2.02860344768092    2.84523687877418   -2.58370981116628
O          -0.96641199701410   -0.31722895147061   -3.00235495290370
H          -0.02968251160004    0.14447283084253   -1.93529102657583
H          -1.55560224705411   -0.92827555500315   -2.50235539634032
H          -1.50059091470816    0.49268244506038   -3.12688269517594
N           1.72958894678033   -1.55283583856683    1.72681302652338
H           2.40257570835242   -0.95787242354771    1.17691569249719
H           1.57219962259507   -1.06962599432180    2.64234739413776
H           0.78834540134781   -1.46029487460050    1.20429744833167
H           2.02568236921914   -2.51660431050785    1.83125552187431
