    26
        -50.46519397  Gyration_radius:  2.61180218802 Dipole_moment: 4.383
 S          -0.42089125871215   -0.67758323400317    0.06580824277688
O          -1.28406106614902   -1.14842547788499   -0.99864011432864
O          -1.16672786412612   -0.84254602548854    1.41458158541951
O           0.83524230420118   -1.41122441271843    0.13467233401036
O          -0.16807975790595    0.77059429825573   -0.09527056122943
O           1.55422072156582    1.05870087108674    3.48451214129740
H           1.51482569795844    1.32632740063126    4.40395157724540
H           0.78632050980739    1.48324241364590    3.03793097713518
O          -2.10490161232398    0.27109008238665   -3.04965824919229
H          -2.86737984519843    0.78017194181578   -2.77024279127919
H          -1.91202122179791   -0.35114463080739   -2.30715754865152
O          -0.68992010995096    1.87861673589858    2.26441639048345
H          -1.37759271826902    1.27013735566271    2.54847246164153
H          -0.47295596765451    1.59717925443406    1.35207453283049
O           1.18408837663292   -1.64871252234884   -2.44318355448082
H           1.19875339126525   -1.65172135088882   -1.45591370849649
H           0.39091563219290   -2.14315350165873   -2.66913901462892
O           0.86378657954953   -1.43825971992493    2.80401965237204
H           1.27911504692232   -1.61994102656898    1.94589621254990
H           1.22973024232156   -0.57580555686753    3.10853931808757
H          -0.44598805885000   -1.11717900895178    2.07966030616984
N           0.43722265693450    0.87066091618940   -2.59999638510349
H           0.27473908045326    0.98585107618162   -1.54878822033933
H           0.86528185778672   -0.09882272470470   -2.69451637563942
H          -0.52246659174942    0.83006488839975   -3.01845786433349
H           1.01874393507950    1.60188193822381   -2.99357130430177
