    26
        -50.44109280  Gyration_radius:  2.58409608787 Dipole_moment: 5.868
 S          -1.36938902737317   -1.50198564515475    1.45840528313325
O          -0.04434583348622   -2.03915221337875    1.37104604132058
O          -2.06834023045722   -1.63180529863783    2.68411119628563
O          -1.29249493021819    0.01975821682378    1.04818089222585
O          -2.23609752075785   -2.04951619920171    0.30249053977531
H          -1.72121959488062   -1.98067830582735   -0.55286661423317
H          -0.64255600414103    0.44670129043714    1.69217823271533
O          -1.07846732775462   -1.68631310295599   -1.99703592959933
H          -1.75813193066801   -1.90428982049192   -2.63789573735179
O           1.66569412851922    1.27414883286749   -1.22377105096226
H           2.38913563017452    1.44805649748363   -1.82637891553202
O           0.34772036131359    1.20748394958065    2.59370962318636
H          -0.07621837399360    1.62294253585685    3.34702475678419
O           0.88524188889516    2.98550318821341    0.70710457811687
H           0.65071906216328    1.92859188799811    1.98707086477624
H           1.28485892631613    2.39531636907797    0.03483067454679
H           0.07032141842926    3.31059307448029    0.31839131585471
O          -1.01159052676910    0.90014700363420   -1.56431358200355
H          -1.04504307782388   -0.69038961245669   -1.95086770392873
H          -1.25001463036111    0.76164994040205   -0.63464511000642
H          -0.06404268838766    1.13184403888905   -1.55771192465305
N           1.69526355848941   -1.27941585417245   -0.70835236081564
H           1.73046797835835    0.28962295097891   -0.96326586952920
H           2.58851796396705   -1.74852407423136   -0.62116757426713
H           1.17080611110813   -1.47573981268967    0.14786008996279
H           1.17920465934883   -1.73454980752068   -1.45413169580111
