    26
        -50.46519395  Gyration_radius:  2.61190055721 Dipole_moment: 4.380
 S           0.47959435973564   -0.48116736963709   -0.42069911235882
O           0.68535998224984   -0.05170614216773   -1.89576481305820
O           0.04863170657978    0.73068063140790    0.30919901616053
O          -0.55707011975811   -1.50270282654286   -0.37248502407701
O           1.74715580932191   -0.94756395844916    0.10441646832669
O          -2.90563361520362    1.45478269899474   -2.26579107778943
H          -2.11721116584579    1.94831148248504   -1.94298129241277
H          -3.25847142307554    1.95875751518314   -3.00071429566694
O           3.00527002755402    0.04662172574679    2.18356548904125
H           3.49914834203668    0.81394346590397    1.89047185977353
H           2.66471931312069   -0.38234600079097    1.36148068772418
O           0.13205956800051   -2.51710538209838    1.93422246294602
H           1.02737504651736   -2.79927266809791    1.72577246155489
H          -0.25010473653177   -2.25832497905565    1.06141332832128
O          -0.55685782492908    2.53393876924900   -1.54781591587805
H           0.07353652538498    2.25305698691711   -2.21681711003583
H          -0.36349458235615    1.96684074032018   -0.77339796817529
O          -1.57273712771564   -0.81869312059910   -2.74476698546511
H          -2.17509556280873   -0.05206061940615   -2.60351811992510
H          -0.16881528510079   -0.33585117442377   -2.37210724258418
H          -1.59850018886807   -1.33714918825798   -1.92476361230091
N           0.41669778398419   -0.02901838283209    2.74606830127505
H          -0.09678137428083    0.36572738984541    3.52601173920711
H           1.45364167174335    0.10218871327606    2.81999134168884
H           0.23729663335838   -1.06917295284880    2.61274480101509
H           0.15028624687783    0.40728464586833    1.80626461269404
