    26
        -50.46846769  Gyration_radius:  2.39956394816 Dipole_moment: 5.643
 S          -0.83620521386802   -1.40700294863093    0.79679095028709
O          -1.42716447533351   -0.06740399962054    1.03422593705886
O          -0.77455335391872   -2.18675395901332    2.00324545885331
O          -1.76680727132564   -2.12104317898937   -0.22940911755324
O           0.47113505351158   -1.24718362182453    0.17041256943559
H           2.10201217316816   -1.65273035245906    1.90033910991174
H          -1.65976232078910   -1.63033117356415   -1.07954762427404
O           1.62427563844167   -1.25970601658790    2.63706346572427
H           0.73592325625218   -1.68384209946725    2.58826946838790
O          -1.56397368947322   -0.63062980469011   -2.42684941253664
H          -2.38391113262855   -0.73056992789190   -2.91364718590815
O           1.28225574470193    2.01219795254525   -0.73222341219709
H           1.98968600585192    2.56754618062541   -1.06203805560548
O           1.23246297279973   -0.20338083640980   -2.08975033709644
H           1.05178780018418   -0.72218525284092   -1.27294895548538
H           0.43669976397120   -0.32794341103874   -2.62000753544981
H           1.30387339799403    1.17833286546775   -1.29118345852560
O          -1.54009242070404    1.57540862777959   -1.03032889419364
H          -1.60253472937696    0.26571228809343   -1.98883961231208
H          -1.63528594778567    1.04104807714223   -0.21168143536100
H          -0.64640052777064    1.94322037682952   -0.99555817117557
N           0.74425537385177    1.08846321167496    1.77746294704123
H           1.25869387252627    0.22844837459005    2.13150378873250
H          -0.23412957006171    0.70760100659454    1.54593615623339
H           0.70544364481730    1.81871353940967    2.48093224444347
H           1.13231594497539    1.44401409227984    0.87783112156405
