    26
        -50.46846769  Gyration_radius:  2.3993344376 Dipole_moment: 5.641
 S          -1.45743704020507   -0.94250434399344    0.54821093812916
O          -0.92513013284973    0.06122930484426    1.50175955066958
O          -1.78812591572210   -2.17974822409797    1.20187193593492
O          -2.75002251604369   -0.32317331088217   -0.06386324740244
O          -0.49926922696359   -1.12522163726686   -0.53609974634881
H           0.61572192593583   -3.21702740788477   -0.10708800565057
H          -2.45023148158207    0.43634282516621   -0.61905214388508
O           0.64495660088105   -3.16738993624276    0.85327180030796
H          -0.28666678473602   -2.96367479832323    1.10212295979398
O          -1.87424122802318    1.81704140519453   -1.38450407676573
H          -2.59237798125651    2.45198404375533   -1.40406836018482
O           2.20019742369461    1.06337172200824   -0.50270736996243
H           3.04287411468737    1.25412150003825   -0.91641934506078
O           0.45643371858914    0.48816840837939   -2.34186727197606
H           0.08041047725016   -0.23198108778714   -1.78604941884995
H          -0.26749418674627    1.12096837190685   -2.41584858202951
H           1.56629560608011    0.85493929897042   -1.25308021142298
O          -0.15021105649950    2.37621213517105    0.49471577689855
H          -0.47625274982609    1.60237998353306    1.00432414359496
H           0.74421421474312    2.14062542878500    0.21238978269307
H          -1.22540765265005    2.14476892795410   -0.70001138765047
N           1.51803373148529   -0.73278151959550    1.43387641998039
H           2.08819993355079   -0.66614117139286    2.27058369288293
H           1.33990947290732   -1.74396819120974    1.15871229234991
H           0.52759357970423   -0.34756900150958    1.59646722919452
H           1.91802717358254   -0.17097271550410    0.65235262475809
