    26
        -50.46846765  Gyration_radius:  2.39937152697 Dipole_moment: 5.643
 S          -1.35538956048173   -1.21188357229485   -0.08381759545142
O          -1.39626674352799   -0.25556505452808    1.04930514256406
O          -1.66331270432568   -2.55249847196277    0.33484750468901
O          -2.43293836845083   -0.73128114240206   -1.10211093450237
O          -0.05592462304976   -1.11867840470047   -0.73949643583876
H           1.19811956363524   -3.05229858874629   -0.03115194650241
H          -2.10000366547319    0.12392555151974   -1.46653037625304
O           0.87034720066713   -3.10816910357950    0.87162792322537
H          -0.10887321144171   -3.07926459809389    0.76381126657029
O          -1.55423022467348    1.65539849672498   -1.89129719566008
H          -2.32156420742308    2.17086233980485   -2.14579796864084
O           1.99549931701376    1.43969580967269    0.40992113085821
H           2.87902517085138    1.80521480300865    0.35120616040586
O           1.16756369933193    0.81933120121298   -1.97427206615576
H           0.75757821906326   -0.00925556884248   -1.63612308529229
H           0.41455498603584    1.33768775758137   -2.28131591075104
H           1.72377804334515    1.22426258279524   -0.53242057043676
O          -0.75583630236862    2.25151782119555    0.52191317782866
H          -1.09340557659740    1.38323512909795    0.83328025789953
H           0.20739062819705    2.19029689885826    0.58259253614668
H          -1.26731657703511    1.99750914247873   -0.99821850116620
N           1.01051080656213   -0.65171675903668    1.85827001985169
H           1.22004780549797   -0.59566280581482    2.84951232252907
H           1.13351238100693   -1.63949299450087    1.48549802611261
H          -0.02536923124108   -0.44453440967469    1.65870399942961
H           1.55250317489261    0.05136393022900    1.31206313854652
