    26
        -50.45123022  Gyration_radius:  2.4710027123 Dipole_moment: 4.664
 S          -1.87754908413570   -0.97547433833775    1.13059785630800
O          -0.87876634169508    0.01886880559954    1.45453057585119
O          -3.04984311967560   -0.96831099499158    1.92394597783991
O          -2.21856287232487   -0.82980034790925   -0.38288809367307
O          -1.22410424068503   -2.36877955623828    1.15937838436075
H          -0.52540086207147   -2.34762567994991    0.43749299594955
H          -2.04850637537606    0.09693407483316   -0.71941603543927
O           0.47512791931240   -2.27029467379969   -0.76490832301834
H           0.16944322402236   -2.89952894643813   -1.42129030593540
O          -1.73603919555252    1.53470215267802   -1.31100353803406
H          -2.53469410264352    2.05571749113932   -1.40723947230175
O           2.17522100286282    1.45654453335440   -0.33660918918753
H           3.08782747364531    1.72144116001276   -0.45319335990725
O           0.55507408318972    0.03077188058215   -2.02000120914844
H           0.49484755348951   -1.38607007787529   -1.22990570275774
H          -0.28221938476129    0.51053601053306   -2.02118962004599
H           1.18259799407370    0.59126789925897   -1.52580403806816
O          -0.22714208725731    2.47214345392938    0.55349868943339
H          -1.16760472966142    1.99739026312839   -0.61552944888293
H          -0.44033919471321    1.71204090910403    1.12248937540990
H           0.68218743933335    2.30984182730046    0.24696247359630
N           1.91975568639785   -0.58196210147402    1.32021395669542
H           2.16673226799420    0.69903787138131    0.32459851198442
H           1.94539004933418   -1.45154203075739    0.80015163170150
H           2.41628023692403   -0.72185569499725    2.19071752568674
H           0.94028669998494   -0.40599389007116    1.54440036159301
