    26
        -50.45004761  Gyration_radius:  2.53814720097 Dipole_moment: 6.003
 S          -1.68740072266570   -0.53585728021054    1.93146912467995
O          -0.41428917871081    0.12198058907499    1.73346142661278
O          -2.21258819324915   -0.56229191676867    3.24293948911811
O          -2.72052625936194    0.10642004419380    0.96894343810773
O          -1.55929826211502   -1.99211910008982    1.40969469482505
H          -0.93752340854834   -2.03707465807733    0.62909205216916
H          -2.29024863091621    0.58361398560902    0.20344461945816
O           0.15104319398540   -2.22612883971115   -0.52513497038381
H           0.34579894674099   -3.15924793844375   -0.62517119736603
O          -1.77214848110675    1.35968746964280   -1.08923945988486
H          -2.50943165220053    1.47636299488321   -1.69053818488107
O           2.11951952101024    1.32229050513207   -1.16674722440024
H           2.54339618540591    2.02139545089599   -1.66573571265091
O           0.04098211183983   -0.07457433299343   -2.24341899633009
H           0.02975796760762   -0.92100661542946   -1.76835293904920
H          -1.09129102661487    0.79729712982498   -1.57578499452079
H           0.86483571908997    0.37262106491301   -1.96132368949152
O           0.32042321336727    2.38214581689305    0.44990427156325
H           0.13680501387992    1.65411859301486    1.07020637039033
H           1.50956080785188    1.77181761149511   -0.52276846720160
H          -0.46688363378802    2.41898371135577   -0.10871891959206
N           2.03552419220791   -0.96777873209577    0.70227203188290
H           0.95967392293779   -1.79303052701995   -0.05571414727735
H           2.41763800366746   -0.26373070319421    0.07788464707035
H           1.39514591520702   -0.49198625888935    1.33504283689313
H           2.79152472447768   -1.36390807399890    1.24429392026104
