    26
        -50.46788068  Gyration_radius:  2.39871963374 Dipole_moment: 5.653
 S           0.30336405160975   -0.18080524959409   -1.77095669095327
O          -0.64446939633236   -1.16904971461193   -1.20409471604522
O           1.22223264703454   -0.78441356959975   -2.69771270699472
O          -0.56160203665322    0.87532252518795   -2.52560464248249
O           0.98635679568664    0.50711083355767   -0.68092837046378
H           3.23071431547885   -0.45075783068601   -0.58142371777738
H          -1.08285814578183    1.35465545286959   -1.83788062320854
O          -0.39510996361497   -0.22365363302682    2.44708117949049
H          -0.77206362648162   -0.44873890696892    3.29860331264432
O           2.97294360369600   -1.35290857784600   -0.79271209178016
H           2.43579680010727   -1.25573805289206   -1.61356066723084
O          -1.84996919450436    2.21190615171640   -0.61148855508550
H          -2.04417751508989    3.09115984220503   -0.94036572180766
O           0.13192333655012    2.22940813694121    1.08225407281767
H           0.61514742511445    1.68562938052149    0.42119166767489
H          -1.12644149974026    2.31781146910091    0.07343870941375
H          -0.01809397522575    1.61538371506296    1.81324837424371
O          -2.28575892922924   -0.24022665663039    0.64528765493141
H          -1.79817645089579   -0.66356935440212   -0.09535618664314
H          -1.15834890458086   -0.21253745042288    1.79888589948851
H          -2.48542404582450    0.64743506817925    0.32157837933775
N           0.87592891612965   -1.93365272074144    0.72323980282749
H           1.81046319464652   -1.70555579987552    0.27079056134723
H           0.17199262354453   -1.74771666634914   -0.06858257462872
H           0.83950539678409   -2.89678814600862    1.04085380490427
H           0.62612453757055   -1.26971023568012    1.48421386598207
