    26
        -50.46519391  Gyration_radius:  2.6118200418 Dipole_moment: 4.383
 S          -0.40914222084583    0.30675851433097    0.61484178908233
O           0.13197166359942    1.61594978225475    0.27723939993713
O           0.12343690170228   -0.10554474437496    2.01087513356698
O          -1.85765573982775    0.29482866730161    0.65237042108805
O           0.07783351855799   -0.71688483676944   -0.33493610363766
O           1.90730700438277   -2.13078714801950    0.97723343459933
H           1.53025925982053   -2.05219994056727    1.85783797984313
H           1.25577290660620   -1.69529389521495    0.39031049256054
O           3.85545503215583   -0.29025617807015    0.85516924037731
H           4.60987979216060   -0.61394985770095    1.34978708786482
H           3.21299723099824   -1.03481895570729    0.80854242069788
O          -3.42073325869891   -1.14773857024439   -0.88735138026525
H          -2.94955354904475   -0.59649713325406   -0.21666772858719
H          -3.48703473964242   -2.02336846104970   -0.50329092845932
O          -1.68255878760612    2.24105206676033   -1.49480220397346
H          -2.46744221874296    2.21306275174915   -0.93997140605901
H          -0.93221932306066    2.16289379046119   -0.85780373475632
O           2.14719763526374    1.41524422731686    2.01638775055779
H           0.95079432302450    0.47049029754884    2.15537628964291
H           2.86298010689284    0.89270134030474    1.58623931730141
H           1.68277267202166    1.87751601490088    1.30049296871131
N          -1.42685248670596   -0.22791972308526   -2.37137055600749
H          -2.30745422318987   -0.70428966587761   -2.06264950492451
H          -0.69249068744110   -0.50932120142630   -1.64597192041162
H          -1.15472568668789   -0.45794701436140   -3.32046497530060
H          -1.56079510568045    0.81631986280582   -2.21742326345033
