    26
        -50.46304600  Gyration_radius:  2.42266274754 Dipole_moment: 4.010
 S           1.48225210616415   -0.97405988351801    0.73308476229874
O           1.12129472657183   -0.57682233750542   -0.65188927777877
O           2.71518492962859   -0.36913649277716    1.15122934338298
O           0.37205180042268   -0.67098129445332    1.62177358961763
O           1.67384903209112   -2.52951932098505    0.69850824420526
H           0.86048203114983   -2.89787737867390    0.33063940876406
H           0.84248161243169    1.14448595953380    2.65331712108699
O           1.51311235373075    1.71485948154629    2.25683450119728
H           2.20405905129301    1.07565230102959    1.98108398836150
O          -2.02526783090805    1.51614107214758   -0.55691140059986
H          -2.80797298775944    2.01157744803624   -0.31355092189252
O          -0.61902612529406   -2.54635783753168   -0.89720926209187
H          -0.02522879465823   -1.77071289035116   -0.95562111805914
O          -2.07959009306132   -0.76305639176634    0.66605030144100
H          -1.23737001480743   -0.72198208559521    1.16908018735242
H          -2.10233232588678    0.62820936150377   -0.08968073048415
H          -1.94556105265875   -1.50723409126061    0.06029955156368
O          -0.73809436054727    0.03865533940470   -2.73499549748320
H           0.03925656803951   -0.16288539130498   -2.20321993327842
H          -0.84408322684115   -2.77065049098633   -1.80357912735113
H          -1.32115461188087    0.56426203974342   -2.17553868983784
N           0.58409492489190    1.94651774405593   -0.19640094887140
H           1.00845138179183    2.65286656104565   -0.78922080634980
H           0.88702352530355    0.97521309488808   -0.49112101921779
H           0.90562716355466    2.03480170824456    0.81653502931593
H          -0.46353979275308    1.95803375554890   -0.27949728527565
