    26
        -50.46846769  Gyration_radius:  2.3993720834 Dipole_moment: 5.641
 S          -1.49174360792790   -1.03281311118247    0.13960437732338
O          -0.75927681623044   -0.75928719677649    1.40010954970723
O          -1.89285349592144   -2.41003000220310    0.04097569505155
O          -2.76096093412506   -0.12870518188798    0.16496909258820
O          -0.67122784356696   -0.61021514803346   -0.98976486661444
H           0.23977858415579   -2.62393497743324   -1.95362196768852
H          -2.43459079913324    0.79988935839804    0.08622072619007
O           0.36835299280361   -3.12179427218578   -1.14057462388767
H          -0.50569823006566   -3.05749702844778   -0.68968527620797
O          -1.78701818186940    2.34962176022424    0.13764660458673
H          -2.42807987629951    2.91176243372423    0.57615624475752
O           2.24383621581572    1.08008859021598   -0.14308214116848
H           3.05720576406790    1.44111213710085   -0.49767272236884
O           0.27356604354613    1.70327217869873   -1.71955090552066
H          -0.12306516775995    0.80947624493153   -1.60683018287447
H          -0.37921581701211    2.29398718386799   -1.32593952026025
H           1.51976440433741    1.35287355115329   -0.78294506398846
O           0.16559467015256    1.69067536635145    1.74043312938992
H          -0.19300258128425    0.77698992755597    1.77833931349491
H           0.99564761676030    1.62145441401196    1.24901140517181
H          -1.04113173798681    2.21146770315758    0.78691017535559
N           1.56114560869415   -1.46801266302086    0.55332348175785
H           1.24484119643323   -2.14228073879732   -0.20507179340656
H           2.21525809781617   -1.90440189504453    1.19466827901660
H           1.94200529688115   -0.57949853922892    0.16379797413216
H           0.64086861772023   -1.20420009514895    1.04257302545899
