    26
        -50.45730962  Gyration_radius:  2.44899279798 Dipole_moment: 7.980
 S          -2.10077468870273   -0.92039295576431    0.77117917869618
O          -1.27533750623815    0.11581173509430    1.46571928131070
O          -3.42781653657912   -0.98918515208159    1.27074592208368
O          -1.95894186157734   -0.76377503351866   -0.66998716478091
O          -1.34137943910403   -2.27506365897599    1.10638279903012
H          -0.66494252388408   -2.30913889758923    0.40877817875650
H          -1.51452532414116    0.47369362380213   -1.50415900393082
O           0.81703016722539   -2.19842264439018   -0.53591498765841
H           0.83507535434487   -2.94179205564996   -1.13949678983169
O          -1.15011719015318    1.23628055542560   -2.03793509918741
H          -1.75029969412937    1.34800881743130   -2.77585138706076
O           2.01533694884224    1.63302722229299    0.34413956551649
H           2.58957837685060    2.37329530687515    0.54095993574601
O           1.27450532318798    0.01577206945322   -1.84042762198989
H           0.93217843731622   -1.38020677003429   -1.10199699599731
H           0.42647921430540    0.44815598855890   -2.05826650467386
H           1.70740867818130    0.60739133830985   -1.20763463882700
O          -0.44523852731390    2.38627982860957    0.32667033251671
H          -0.87305538200747    1.67209255709353    0.84325906841900
H           1.07160203243188    2.00192069996363    0.33460008226711
H          -0.74237483370238    2.23154592909363   -0.58666959844222
N           1.14847472860813   -0.56640344160718    1.62802375686639
H           1.44606831317820   -0.80097343853015    2.56789656303691
H           1.24880131199343   -1.36743467134503    0.99070155585501
H           0.06582890817218   -0.28431383684769    1.61517850690201
H           1.66643572291894    0.25382690433242    1.24410504538943
