    26
        -50.45123045  Gyration_radius:  2.47019830258 Dipole_moment: 4.655
 S          -1.86159935771236   -1.44440157474022   -0.43580450163093
O          -1.54521578891417   -0.44024397933642    0.55561354693376
O          -3.23119389975885   -1.77116520924297   -0.58194526402602
O          -1.24218753994348   -0.98568500879158   -1.79012567135586
O          -1.03946196245911   -2.71228418396053   -0.14388602966017
H          -0.07967799488370   -2.43289364238041   -0.24757677362555
H          -1.14872646810299    0.00909446498203   -1.84366379536721
O           1.38316614022488   -1.94529661137209   -0.52003286556793
H           1.69993754947021   -2.43336363304143   -1.28270224824749
O          -0.91977143933304    1.57471507488381   -1.94565988696794
H          -1.60251702090194    1.99652714785867   -2.46951850392173
O           1.49628591823535    1.75596942656882    1.28064801579366
H           2.19950276408420    2.15129325216646    1.79631733364647
O           1.62318538855550    0.57989369273318   -1.18668375774790
H           1.45601716985409   -0.98067746782591   -0.77015797511585
H           0.86911094052136    0.93732617785661   -1.67106918667225
H           1.66492923834492    1.08118620804673   -0.35041715147237
O          -1.11822694930263    2.21919132586455    0.54001680733361
H          -1.43194720568409    1.32418533075121    0.75814500115630
H          -0.20237822053936    2.25164194840338    0.86728602950689
H          -1.01697919047945    1.92517719303561   -1.00314031638443
N           0.81316000373274   -0.63284353663548    2.17064354098072
H           0.70375479945185   -0.91133647295007    3.13726674373946
H           1.35987381928187   -1.34367674081523    1.69831061124648
H          -0.11020932644739   -0.64041309912870    1.73715908250341
H           1.28116865273558    0.86807991706491    1.70097722491177
