    26
        -50.45123062  Gyration_radius:  2.47057980712 Dipole_moment: 4.659
 S          -0.84734607246474   -2.18135972226189    0.51936285583691
O           0.02874484956863   -1.23132448131335    1.16829191288559
O          -0.76263680666467   -3.52081419345168    0.96938730969837
O          -2.29721180382331   -1.67559570395426    0.62121792970393
O          -0.59872298409273   -2.08412292598597   -1.01596727778782
H           0.32520397070157   -1.76407461898699   -1.22768936218060
H          -2.30839595523144   -0.80750813791819    0.11491300372263
O           1.75630809741820   -1.19739253933925   -1.60965240848335
H           2.35353459759814   -1.89946782882416   -1.87205515430476
O          -2.26700490647823    0.48407462887580   -0.76947688464764
H          -2.83258715288093    0.31925543828099   -1.52662939506432
O           1.26006414666640    2.29259660728156    0.35371316783656
H           1.44438079392240    3.22042164608362    0.50114495396248
O           2.45167269368982   -0.17457920171025    0.64942147311462
H           1.68758835837094   -0.59080776323619    1.08519243839621
H           2.12796212509832   -0.80131806437622   -0.75782029407240
H           2.22014870062739    0.76831139296872    0.58211826052708
O           0.07428056043654    1.07605166095052   -1.79257365227115
H          -1.36695939902793    0.69554828410971   -1.14835945441178
H           0.54945660020238    1.58979161089860   -1.11258727681593
H           0.63070910902100    0.31072225179829   -1.98158148777906
N          -0.82281968014690    1.44524842061062    1.73572690776042
H           0.47560657291762    2.04868712641347    0.93352781177096
H          -1.66530039873975    1.54237540314490    1.18069377230987
H          -0.56705088876748    0.45820907523226    1.70545743250623
H          -1.04962514792481    1.67707162471414    2.69422342778567
