    26
        -50.46304597  Gyration_radius:  2.42270200923 Dipole_moment: 4.006
 S          -0.86611538546726   -1.71232220047450    0.03858286848278
O           0.08163427240292   -1.08137900799480   -0.91540380848099
O          -0.30260831678284   -2.88559945122216    0.64423584131931
O          -1.29416440061099   -0.72133642175639    1.01265361905461
O          -2.11309566291594   -2.13678754007440   -0.81139070306837
H          -2.41352045258492   -1.34326983268802   -1.27252947086906
H          -0.18370398744263   -1.05804971786463    2.81212161215142
O          -1.82231769562293    0.34726573194181   -2.05672185065010
H          -1.01501932598886   -0.10243834602032   -1.73467396440058
O           1.11669311659041    2.29867901199385    0.42254367859836
H           1.24357887100852    3.10172603422840    0.92885134109461
O           0.63687038876001   -1.56105313807510    2.73498900650215
H           0.38582933264101   -2.29136534362937    2.13012282191855
O           1.24091506743920    1.15324913797000   -2.27110998860120
H          -1.60602168685896    0.67333846086372   -2.93388291786035
H           1.27696998805013    1.71645305074838   -1.48959413229260
H           0.97158217961550    0.28071669951653   -1.96472219894530
O          -1.41892716455106    1.80507950792821    0.28164510335766
H          -1.71251316882019    1.65314174250593   -0.62910273023721
H          -1.45537519708436    0.91133932994386    0.68659977784005
H           0.12144045780652    2.16218225042075    0.36292771173409
N           1.85746204437458   -0.23523643298417    0.81481477240452
H           1.68413171430470    0.80134094892735    0.80577474866521
H           1.25413778157247   -0.63607475539291    0.04190351233866
H           2.83739385908229   -0.44622449159409    0.65455694717369
H           1.49474338115507   -0.69337520727141    1.70680841280749
