    26
        -50.44974529  Gyration_radius:  2.55353017883 Dipole_moment: 5.643
 S           1.85695238116723    1.17008004319326   -1.52287584840969
O           1.20779693500369   -0.11933230297364   -1.41578278269773
O           2.88989804847842    1.30115321541535   -2.47756803421313
O           0.76926076235950    2.24194695225568   -1.79482618706221
O           2.40750375098759    1.54598800654520   -0.12189072769440
H           1.84979827541429    1.15964331884721    0.61342250409390
H          -0.10392161792333    2.00107819084060   -1.37590025716299
O           1.13459714867249    0.46613472274001    1.85784632871440
H           1.72713348007263    0.50783998557688    2.61022105654596
O          -1.58471647637476    1.61537930899100   -0.88824683849111
H          -2.20790159401014    2.11544286249842   -1.41809696406310
O          -1.85198673907820   -1.90734491584054    0.76367076123864
H          -2.72386567604183   -2.25072190232438    0.96201313834607
O          -1.38226916169318   -0.81154309719319   -1.69415204039028
H          -0.41293465884506   -0.73556508398780   -1.75363789998092
H          -1.55793866949758   -1.34382443996542   -0.89243569216638
H          -1.60112498135967    0.66470661509760   -1.24081016147452
O          -1.62190178310683    0.56831862989474    1.69070551161545
H          -1.80323405139110   -1.01130398304798    1.18724631466267
H          -0.67823907326208    0.63127137639978    1.90881531190828
H          -1.72673258247275    1.09432277335108    0.88318664193996
N           1.10536125294340   -1.90342936749430    0.82781973465537
H           0.15362425480465   -2.25598608359000    0.85972186410845
H           1.27803790786302   -1.57280284558807   -0.11922025594153
H           1.13709033976292   -0.50633945243747    1.52426465048665
H           1.73971250752604   -2.66511253720227    1.02650986142924
