    26
        -50.46304612  Gyration_radius:  2.422720856 Dipole_moment: 4.012
 S           0.04449178785885    0.85525936960310   -1.71708400706526
O          -0.74793882985043    1.10635845221728   -0.48626043038312
O           0.88807648823315    1.97145349954839   -2.03880587623441
O           0.78331887592326   -0.38770086372935   -1.56457269514781
O          -1.00021145059193    0.66788027752546   -2.87079815101600
H          -1.60330662514822   -0.02973144259091   -2.58431954794877
H           2.81513896034312    0.11521889501090   -1.07991700988938
O           0.38955695362797   -1.27812160706588    2.21876408574498
H           0.81796277749866   -1.95298327837912    2.74633818907301
O          -2.42872819541907   -0.85924472632845   -1.01692105345205
H          -1.89063332439917   -0.11392012146533   -0.68144822384123
O           2.96885184763348    0.99877990719015   -0.72260960249158
H           2.40836672597381    1.56431508338196   -1.29563019741474
O          -0.24063563250208   -2.30007588818659   -0.07266869852770
H           0.13107619892511   -1.72382061327228    1.35427339820349
H          -1.16989906897433   -2.14583285680487   -0.29944797588740
H           0.24620948354470   -1.70168362943898   -0.68011209593177
O          -2.06619162190524    0.29101287047747    1.91651979359897
H          -1.36408924930197   -0.30541395205820    2.20036112919737
H          -1.72737765747878    0.76313871773117    1.14839251362247
H          -3.26859110724860   -0.80233947650558   -0.55443215169877
N           1.21871440706498    1.06409929593993    1.24427014048010
H           1.30028277312894    1.82399934604861    1.91236336310460
H           1.05412022535002    0.14610428019407    1.72895729392762
H           0.38427402832828    1.20920268879858    0.60827078920407
H           2.05716122939539    1.02404579218854    0.58651702074900
