    26
        -50.44974523  Gyration_radius:  2.55343178742 Dipole_moment: 5.645
 S          -2.32580589247967   -0.93010798789739    0.92789177219377
O          -1.22580349929135   -0.11637711039455    1.40040156463769
O          -3.34954347625170   -1.23980963482015    1.85080548362355
O          -2.94724589134295   -0.23590648094966   -0.31220738349697
O          -1.73609638815442   -2.24803288024249    0.36014135319767
H          -0.81929542343202   -2.11416029213796   -0.01753123923319
H          -2.26723271558811    0.27882895065131   -0.83041243494294
O           0.69874179886504   -2.05384129703898   -0.49935300789421
H           1.04535591048547   -2.94721579973510   -0.52427829291859
O          -1.28552950104002    1.26993677678294   -1.62587653438423
H          -1.82779575751742    1.90868345534490   -2.09179263146483
O           2.28234489241403    1.55988331712542   -0.07861975694932
H           2.87584925638357    2.22609174706827   -0.42694214809306
O           1.22761496296762    0.15781661175690   -2.06922297640484
H           1.09405930188018   -0.71706469642410   -1.67070105059353
H           0.33924955585943    0.54032494019726   -2.13412631844388
H           1.97104865642767    1.03013281215574   -0.85788022172763
O          -0.28981872812395    2.25463267011188    0.52360070709989
H          -0.63326186334017    1.51125589781049    1.05110430382778
H           0.67132734287846    2.09548362831833    0.43502448111828
H          -0.89662132094051    1.75061095130229   -0.82223532325860
N           1.55812112340527   -0.78117256635310    1.57838003503833
H           2.06159859762633    0.04297120358901    1.26468378151948
H           1.11051833305590   -1.59251193930727    0.32221301138431
H           2.03855646040874   -1.16934598852403    2.37870671860424
H           0.62966428485937   -0.48110626839426    1.86822610757401
