    26
        -50.46519393  Gyration_radius:  2.61193166017 Dipole_moment: 4.381
 S           0.61850685092450   -0.05103863449061   -0.50303555301409
O          -0.46722737742489   -0.51257499072726    0.38869752133534
O           1.87018610819952   -0.67050662411901   -0.11637005935590
O           0.24827655574215   -0.53593726208595   -1.92794907446031
O           0.69135576881259    1.40331912514769   -0.50936332835607
O          -2.43788053088695   -1.31684771724688   -1.20397036492302
H          -1.89895385665132   -1.62146775704391   -1.93923579740683
H          -1.79170245681376   -1.06019154105205   -0.51454202739072
O           2.23858690722545   -2.20606598676455    1.98136218711478
H           1.96281314445458   -3.09413665402828    1.74926454741804
H           2.22337089183593   -1.69210634322573    1.13790399127066
O           2.19283928274964    1.63498453414664    1.61587823809570
H           1.63643802356208    1.72101846061523    0.80480826408394
H           2.96761559678045    1.14810017449319    1.32037269204119
O          -3.29000531610192    1.13139035295060   -1.89459470116300
H          -3.99034300718653    1.03689151296586   -2.54204330369063
H          -3.09030441141121    0.22488409850670   -1.56635420960603
O          -0.79088713339983    1.63303430168904   -2.71780463467067
H          -0.31998256865555    2.02238646740908   -1.96379982531554
H          -0.16915466764638    0.27572778543413   -2.37982842393294
H          -1.73750125085973    1.57736177891763   -2.45079608783111
N           0.65064367985641   -0.20709251657181    2.69253417955312
H           1.25068000547529   -1.06573478099938    2.71602942726516
H           0.11946616028490   -0.06239579135662    3.54383422958280
H           1.28182043597384    0.61446034548422    2.45055068794269
H           0.03134317517512   -0.32746231801682    1.82845140540400
