    26
        -50.45788889  Gyration_radius:  2.41145099511 Dipole_moment: 7.659
 S          -1.69893178493435   -1.47958879225312   -0.26768245370114
O          -1.54519061319632   -0.43103915813360    0.78563369312381
O          -3.04519175561768   -1.59898764406993   -0.71498588248209
O          -0.79949651426095   -0.95969757557601   -1.46554465040551
O          -1.01354602467183   -2.68798447932438    0.15296913928197
H           0.47482454375683   -2.36886777223749   -0.17700552567406
H          -1.08022622266391   -0.05339786973249   -1.72191385066297
O           1.44014706715300   -2.09717102551230   -0.21496869466880
H           1.90999817502535   -2.84239853018547   -0.59094035827778
O          -1.11591879170237    1.58614061769953   -2.03350138153458
H          -1.93379710276876    1.81966478243594   -2.47476830940793
O           1.50954276572029    1.79783336983895    1.08784390150428
H           2.21780057101091    2.43811152870686    1.16083794267383
O           1.61511791506163    0.57036823249808   -1.21439969118191
H           1.48565426513925   -0.38019392681347   -1.05258649619836
H           0.86401867387548    0.85304402094778   -1.74911011290337
H           1.59033471673337    1.38987301853123    0.17896096342027
O          -1.23736924756870    2.19977135812761    0.50613889456802
H          -1.52892184242893    1.28826271724950    0.71140324591089
H          -0.32536496411835    2.25495610723531    0.82689901568248
H          -1.18253778580284    1.95155080542652   -1.10828611376151
N           0.70547937010767   -0.65439327525354    1.91040296255701
H           0.67777511729581   -1.00950946404383    2.85881267620927
H           1.22475038059201   -1.28943913513457    1.27455846584893
H          -0.31860041077771   -0.59486375520996    1.47664539440958
H           1.10964950903931    0.29795585478674    1.85458722566549
