    26
        -50.43947686  Gyration_radius:  2.63439897962 Dipole_moment: 7.878
 S           0.46810586403720    2.72567513216612   -0.12143964817744
O          -0.05700300648043    1.70546568435927    0.74427287158458
O           0.64844437345960    4.02637839585331    0.40867969252612
O           1.80841032546000    2.20446763571499   -0.72483953777565
O          -0.44804285094082    2.81539876493402   -1.37913162760283
H          -0.72504622829345    1.89052098462714   -1.57700943471156
H           2.04512408949436    1.30113753888923   -0.36402599838271
O           2.54385234284436   -0.17359079804986   -0.00564137745847
H           3.34431772385765   -0.30426988869767   -0.51779483498504
O          -0.85215547131011   -2.29206052480306    1.00023224886062
H          -0.91293097563046   -3.09509197983379    1.51813975335563
O          -1.24518812358621    0.36702063787744   -1.96636977028207
H          -1.78463872742218    0.46753793695015   -2.75334726508543
O           0.64846876886503   -1.54626945642082   -1.18782096860913
H           0.12777730933105   -1.93365113277180   -0.46169668683185
H           0.08350416190326   -0.85967826049674   -1.57317358705863
H           1.84167865712600   -0.73346682634878   -0.44043545282604
O          -2.79098003890966   -0.84312551453895   -0.19640254810431
H          -1.84594453714357    0.03729509123108   -1.24870043481980
H          -3.39475147129044   -1.51111809087203   -0.52610529344206
H          -2.12271263194145   -1.31648632104475    0.34184147504760
N           0.58467680005698   -0.55550794534241    2.29713872296593
H           0.52602544001069   -0.40018471017742    3.29554415345643
H           0.25819551876433    0.29511351209483    1.83457530765740
H           1.56355717166556   -0.64414181369107    2.04834195860247
H          -0.31274445392573   -1.62736804161392    1.55516827209778
