    26
        -50.44974524  Gyration_radius:  2.55347628454 Dipole_moment: 5.645
 S          -1.96105748398056   -0.56905278459303    1.72270605675809
O          -0.71836238629565    0.17313081348991    1.71270214388757
O          -2.65299650293477   -0.66306097358966    2.95073607015067
O          -2.90123385172080    0.04108318504642    0.65041849399517
O          -1.66919283165226   -1.99750806997529    1.19230709592119
H          -0.91513504173306   -2.00414800727207    0.53470252855909
H          -2.39133090942105    0.41916277081860   -0.11968142542003
O           0.36982014357669   -2.15888403710376   -0.39563904392650
H           0.63213721665207   -3.08087578076619   -0.39965644322559
O          -1.65437081118783    1.20430205408409   -1.31107563805228
H          -2.27527920799582    1.83945405842185   -1.67193530122046
O           2.23194804684076    1.29229094007671   -0.99963754861844
H           2.72377684998627    1.84849926514812   -1.60477598332753
O           0.50838768183754   -0.20849805308480   -2.34799917576973
H           0.45410463551310   -1.01354963807119   -1.80855015236141
H          -0.32768319038591    0.25540202335997   -2.18815657733905
H           1.65459834636978    0.71305891066939   -1.56169760229394
O           0.03745477907944    2.31672180050479    0.26395545387753
H          -0.16587254197301    1.67823677086734    0.97099748610435
H           0.90753490060495    2.04853787678815   -0.09379862804240
H          -0.99878638088447    1.72972446658713   -0.74321368912155
N           1.92804012673874   -0.75522236322790    1.11337213976620
H           2.61396281635125   -1.09805979535101    1.77213375872171
H           1.05118266488096   -1.65272882282076    0.18479738028593
H           1.16242528074175   -0.32837197809486    1.63070046795876
H           2.35592764101104   -0.02964463191526    0.54628813273166
