    26
        -50.45454410  Gyration_radius:  2.42326772916 Dipole_moment: 8.707
 S           0.29338608749176    2.07330101220689   -1.13084526859223
O           0.07465523772206    1.62470182299198    0.27687188768377
O           1.42982627731282    2.93453626871134   -1.22046245403414
O           0.65122733836554    0.72810914967956   -1.91827843543731
O          -0.94997222518146    2.49717892227432   -1.71642417180233
H          -1.61695073497493    1.04139550481261   -1.54506135273273
H           1.47473158021342    0.36401836179310   -1.57541546428327
O          -0.68473777565375   -1.43095586216257    2.11042910301075
H          -1.09386183893706   -1.83414839688686    2.87632406155367
O          -2.02699790537729    0.14271383353554   -1.46209157807878
H          -2.39236171846816   -0.04738458703192   -2.32788993226419
O           2.24331029168547   -1.20143138233580   -0.76063780017636
H           2.74294500085552   -1.76700049965990   -1.34994454135901
O          -0.28337924751801   -1.85344143929517   -0.66387975236568
H          -0.82313721413872   -1.12547561509108   -1.03305599967851
H           1.29392902108973   -1.51652094174772   -0.80398767141273
H          -0.50579671520719   -1.89492711304529    0.27676411000160
O          -2.12601364557809    0.52397907571493    1.24372242234485
H          -2.50993642714111    0.26908894468683    0.39192390612119
H          -1.30083986883585   -0.68346288422938    1.82104493322805
H          -1.39293282460119    1.11985071360796    0.97799177240426
N           1.53275325210829   -0.00318652792258    1.53575705774638
H           0.96606946489815    0.78101226857022    0.98998544792995
H           2.07869946041436   -0.51234295216825    0.82253625914775
H           2.12247873467584    0.40319481760773    2.25211690966404
H           0.80290639478158   -0.63280250461456    1.93250654138013
