    26
        -50.44648314  Gyration_radius:  2.45159921392 Dipole_moment: 1.436
 S          -1.16799672164741    0.18219553060240   -1.63283103997804
O           0.19986909429268   -0.16399614043989   -1.31953595584730
O          -1.79152848583207   -0.64620137026987   -2.60167672586361
O          -1.98320555711860    0.19801127911482   -0.30797163623781
O          -1.24066549725560    1.66344696444913   -2.03271916271278
H          -0.90104668005207    2.11282644575081   -1.20543465614179
H          -1.84085559271395   -0.64012439720194    0.22852921274908
O          -1.55415987868417   -1.91314639683213    1.09427444241571
H          -2.26921813122333   -2.54502517730598    1.00090028638340
O          -0.29492417363850    2.56361241833457    0.17364470939995
H          -0.48581179844936    3.46736755886679    0.43370190939585
O           1.99845469242921   -0.13614019381421    0.73401412131430
H           1.42885013866834   -0.25190277176133   -0.04459674009231
O          -0.21064886850948    0.44904901901859    2.19739132334394
H          -0.51934056525868    1.10797398672849    1.56099471523358
H          -0.77471604364704   -0.32425100372950    2.09174147351150
H           1.37006046323621    0.02644559258291    1.46532324431265
O           2.26850667663733    2.31111772857423   -0.19662999002301
H           2.43500590238998    2.14248879825666   -1.12611409198281
H           0.70168215832489    2.50753517461446    0.05964507021322
H           2.35999372981140    1.42959290844050    0.25237509535954
N           0.53344539595781   -2.79812621785397   -0.20808946596000
H          -0.73656252807430   -2.32435490140647    0.65654653680494
H           0.49413336227841   -2.06923136592665   -0.91835303685194
H           1.38832055418058   -2.65425945679768    0.31756013271153
H           0.59235835389675   -3.69490402199998   -0.67268976146334
