    26
        -50.47284614  Gyration_radius:  2.45094481893 Dipole_moment: 3.011
 S           1.06016561904170    0.73929683848988    0.31999413293800
O           1.52571370230630    1.86579825612355    1.27229370611815
O           1.98748513884768    0.65716105257691   -0.77815623647585
O           0.99713784519384   -0.50731496555102    1.08298260597394
O          -0.29814126545907    1.09664073383558   -0.15030820478714
O          -0.78500084505644   -0.48179911148037    2.97380513321345
H          -0.43066562357277   -0.85558114313697    3.78156018117733
H          -0.06616438457235   -0.55595596466620    2.29427043638238
O          -2.17134840173802   -0.76932487139579    0.53893856430609
H          -2.08006488068236   -0.84614853601416    1.49673125283140
H          -1.59462366509493   -0.02336886744596    0.29248517073474
O           2.01068483861142    0.14584447188345   -3.35075807848766
H           2.67111013840798   -0.53690408834204   -3.48370207848332
H           2.15774047473792    0.48241748593246   -2.43893020695044
O          -0.21810677396743   -2.25647241204300   -0.53965056617837
H           0.41842223975406   -1.79880672961183    0.04615215899641
H          -1.08622999640822   -2.03980911679080   -0.13677382616684
O          -0.82033258247040    2.14473415369513    2.32201116511519
H          -0.95556646779739    1.27271596047257    2.74373828989689
H           0.71308883428978    2.09115984427612    1.79991558185365
H          -1.14277866216734    2.05254844624617    1.41604260278879
N          -0.39570345927641   -0.37623726796453   -2.33557003188734
H          -0.31591488229743   -1.28116006218769   -1.75939283195097
H          -0.41320213500702    0.37504027739764   -1.59742819469712
H           0.47201792891853   -0.23502403067462   -2.91165829192585
H          -1.23972273454448   -0.35945038360645   -2.89859243433252
