    26
        -50.43947705  Gyration_radius:  2.63449527305 Dipole_moment: 7.873
 S          -0.61436286951618   -1.72087366750503    2.07921892326036
O           0.29977006242399   -1.55068021324427    0.98301050916600
O          -0.36392728919691   -2.76319257148830    3.00461042800384
O          -0.72931395422031   -0.35810200107727    2.82860371879409
O          -2.04785469044272   -1.89861203223357    1.49381446297974
H          -2.09349242725990   -1.30432877869914    0.70890327806954
H          -0.12741929297855    0.33290500176892    2.42561948066976
O          -2.24512092012464   -0.34040995862154   -0.62910935305266
H          -3.14367103795330   -0.46549409536540   -0.94118264683120
O           1.25012002357017    0.88053574215229   -2.15443051939657
H           1.90543233804866    1.26602859188495   -2.73640221152532
O           0.66649997943554    1.60210202214084    1.86795361201095
H           0.41243330232091    2.33221409573130    2.43583738480918
O          -0.60647090420372    1.92137627119013   -0.40200677003261
H           0.03570393762664    1.66801721607282   -1.08870339044278
H          -1.26530750640967    1.21087139222954   -0.38914997991966
H           0.20944707980225    1.75751482273316    0.99477165536306
O          -0.69197879979016   -0.91643148584241   -2.68821709583475
H           0.09023309400188   -0.35878496347405   -2.49385655801857
H          -1.64498698148462   -0.67959687385054   -1.34301754232718
H          -1.00347607310491   -0.65181071468598   -3.55562027391985
N           2.43543661101775   -0.01068314915271   -0.01842011536674
H           3.32617588324411   -0.49132331620934   -0.01984936429691
H           1.75618375517501    0.51380387026842   -1.34821503515588
H           1.72599998386280   -0.67988404393733    0.28654368095822
H           2.46394669615873    0.70483883921295    0.69929371203530
