    26
        -50.45004760  Gyration_radius:  2.53827814533 Dipole_moment: 6.004
 S          -1.63783162522301   -0.67706827129545    1.93052228267634
O          -0.40901171010557    0.06160748224310    1.73844814169590
O          -2.15155483449103   -0.76143954563947    3.24404670272885
O          -2.71500963219367   -0.08091556152602    0.98670324164271
O          -1.42410588961084   -2.11218409107598    1.37912881758885
H          -0.80693770893281   -2.10302036075661    0.59367267111523
H          -2.32003114580132    0.43765212287505    0.22924962707547
O           0.28214678587573   -2.20104277084582   -0.57135081127808
H           0.53288911466507   -3.11816659794304   -0.69244683726183
O          -1.85969614287452    1.27099827170281   -1.04982262997728
H          -2.60731743398886    1.35503194976600   -1.64376029252040
O           2.02709991163950    1.47177561598825   -1.15290053801411
H           2.40467793063268    2.20526763909745   -1.63957558322570
O           0.02847768940562   -0.02655936551443   -2.24505159770764
H           0.07224121899465   -0.88135626919155   -1.78712887014026
H          -1.14979913528800    0.76113501455095   -1.55235343134193
H           0.82583742776527    0.46408966318508   -1.95924930481519
O           0.17907047626623    2.38698431153687    0.49641179381972
H           0.04424996433443    1.63697914885688    1.10290594618689
H           1.39571616694166    1.87032503494942   -0.49607528476451
H          -0.61318727355213    2.38730341379519   -0.05639395745024
N           2.09567315968701   -0.85503489800252    0.67000070130403
H           2.87853002601424   -1.21473875898992    1.19916844341786
H           1.06625734354249   -1.72894402184223   -0.09814057922747
H           1.43238286126719   -0.43199863965930    1.31647807470532
H           2.42923242503199   -0.11668051626284    0.05751325377471
