    26
        -50.45730950  Gyration_radius:  2.44922654495 Dipole_moment: 7.987
 S          -2.32855053954577   -0.63173284277170    0.19669559011479
O          -1.59861257865361    0.35275302072165    1.05422309933679
O          -3.73893205345292   -0.52318591437022    0.31620235501802
O          -1.78785924148436   -0.58800467630435   -1.15503555864768
O          -1.85861647177324   -2.03543188026477    0.77411074741598
H          -1.02900240589399   -2.18969380850296    0.29114164290418
H          -0.98550229491149    0.53351355966122   -1.87803238191101
O           0.65476578826164   -2.30475821151372   -0.21214547307760
H           0.74514522722300   -3.08570488131224   -0.75909817087328
O          -0.39931309776192    1.21369803575626   -2.31743426006363
H          -0.75968657636811    1.34018539281515   -3.19563165590349
O           2.03467565389890    1.42260585926003    0.82543167042566
H           2.62288565952389    2.10774325545973    1.14326454908309
O           1.71371411955514   -0.24747192999367   -1.41997985198365
H           1.01720032504282   -1.54444437865051   -0.75417709338978
H           1.01479351784604    0.25896441293394   -1.87682404111201
H           2.03034718595249    0.33458935096580   -0.71367538965481
O          -0.21910251828041    2.43652383590818    0.10808326799163
H          -0.85466920020276    1.80965444468166    0.51197051482250
H           1.18085587484442    1.89062378237450    0.54481957719397
H          -0.27694632288518    2.25406176452992   -0.84575413173388
N           0.58967612583182   -0.57639134491405    1.90011023315572
H           0.59194905613992   -0.77784615242499    2.89326754500276
H           0.75806495306915   -1.42486869971455    1.34357861874025
H          -0.40627874005344   -0.17975736356561    1.58018414988325
H           1.28899855408736    0.15437537924140    1.64470445726746
