    26
        -50.45640448  Gyration_radius:  2.43315070508 Dipole_moment: 7.923
 S          -1.70677046278225   -1.66261735086986   -0.05694589461544
O          -1.54864545873757   -0.45501399044700    0.80746818308101
O          -3.07106311556543   -1.98975360279757   -0.29270472216950
O          -1.01707817434466   -1.25176516816790   -1.42641384170930
O          -0.84473700759441   -2.72107863997693    0.44233958073532
H           0.56656999973397   -2.30103261697623   -0.05999217605545
H          -1.25016659399563   -0.33608969733101   -1.66045867200478
O           1.49851199639509   -1.95278774616756   -0.19501085104511
H           1.98340473297402   -2.65962251185416   -0.62249623578372
O          -0.85532644062399    1.30948005115361   -2.19747682340262
H          -0.89136034632946    1.36313787608462   -3.15322545699916
O           1.22714568771797    2.02005129695075    1.10836307847141
H           1.53106091164322    2.87071580888872    1.42546989985931
O           1.53909399914006    0.61983446124953   -1.32069607607514
H           1.48078470983644   -0.31625657465639   -1.06231286723679
H           0.08717871493773    1.10000811625306   -1.96151475874636
H           1.61922911135803    1.12627468865436   -0.49864976879238
O          -1.25853856105604    2.16093538378583    0.39187161667376
H          -1.55416934602913    1.25975494727938    0.63327301182103
H           0.26275778222133    2.14647276575883    0.84218312994475
H          -1.27298993791652    2.15999968805518   -0.57634227454812
N           0.72243677443289   -0.50021915035616    1.92037071376366
H           0.72023348819336   -0.82183146442701    2.88103653315194
H           1.27847140662821   -1.12475642411119    1.31040996973055
H          -0.30485267441085   -0.52167072937138    1.49500485934299
H           1.05881877417597    0.47783057339660    1.82644983260722
