    26
        -50.43947794  Gyration_radius:  2.63546400815 Dipole_moment: 7.870
 S           0.36882315933074    0.60700216706258    2.67776004596717
O          -0.62259583022219    0.14015263208497    1.74751622462438
O           0.05558264218132    0.58553714242936    4.05857334590079
O           1.68640283668331   -0.18567071221524    2.41853259159313
O           0.76854468502327    2.05858431657913    2.27329031301348
H           0.74338246747225    2.08308157939760    1.28840538179533
H           1.57293855318243   -0.85412403814425    1.68206127574786
O           1.63572718598501   -1.89416992046481    0.47096460696058
H           2.54320917851270   -2.20402758241664    0.44671271393155
O           0.71189088011515    2.21803959959468   -0.36232885974414
H           0.96758598822018    3.12260269233295   -0.55424489285726
O          -1.29846226947745   -0.72466465372913   -2.18440685867834
H          -1.73296095456269   -1.25173687832727   -2.85533638086886
O          -1.62961672279655    1.87596243949214   -1.53926861997579
H          -1.75505782581434    2.29967690411747   -2.39023078392082
H          -1.61228616755880    0.91124609986571   -1.71099069690600
H          -0.22232353285030    2.11192622676452   -0.67978894433077
O           1.33930130140600   -0.24252478838760   -1.54363074620642
H           1.26833201169188    0.62358879693100   -1.11478350777861
H           1.52401763874497   -1.29905067746337   -0.32201150447397
H           0.45115711932689   -0.43187128809748   -1.89514305779968
N          -1.38388237362557   -1.99960280121695    0.08052426456927
H          -1.24605877968689   -1.20740935522923    0.71101683976234
H          -2.18767218458881   -2.51690052969170    0.41324431687205
H          -1.38247314004357   -1.24085672209617   -1.30866612927113
H          -0.56350586664767   -2.58479065917053    0.19222906207274
