    26
        -50.44809201  Gyration_radius:  2.54167477824 Dipole_moment: 6.782
 S          -0.87875711667699   -1.11822824276704   -2.00209503984474
O           0.54397657915964   -1.03870447361754   -1.76037814891711
O          -1.35046115059194   -2.26371940646146   -2.68232999221266
O          -1.57513006124720   -0.94739592029961   -0.61198298542458
O          -1.34997454211287    0.14897278311817   -2.74444803734102
H          -1.02588080144704    0.99145034023517   -2.30624188022443
H          -1.08672574128257   -1.67333700684308   -0.06212847102871
O          -0.06738744411178   -2.62790680816358    0.44315605148295
H           0.57131871832137   -2.50611904367558   -0.26924421068080
O          -0.68469190320375    2.35567072184902   -1.56173260097853
H          -1.25938074279406    3.03515556709422   -1.91899015583520
O           1.00632938342135    1.27671386444103    1.70727753331611
H           1.40752916287221    2.06740484684492    2.07089371121379
O           1.73944770129918    1.15221482048537   -0.80640749230968
H           1.45153749332535    0.29186760123161   -1.17085937683489
H           1.17130089739651    1.80459714642815   -1.23455623902453
H           1.36058789631498    1.19057678514463    0.77935255607427
O          -1.51838216879673    1.49320972212419    0.72949879784696
H          -1.03895882749391    2.12907218632745   -0.64688117592182
H          -1.75501229700387    0.60245163118403    0.43064377819966
H          -0.68727830733317    1.39523852774617    1.23734397600648
N           1.05820706236576   -1.51826686360795    2.57300356184322
H           2.01426954247777   -1.80802610536875    2.73381406750796
H           0.35551518899129   -2.24749396555323    1.27429381780051
H           0.53753410617240   -1.66493632178366    3.42791283226678
H           1.06046737197760   -0.52046237609862    2.37108513301734
