    26
        -50.43947697  Gyration_radius:  2.63384463539 Dipole_moment: 7.874
 S          -0.75318230584247   -1.33566519252802   -2.30265530426775
O           0.30578800901175   -1.25799289235368   -1.33379217056614
O          -0.71591524352406   -2.38498827102279   -3.25289196818224
O          -2.11017158999901   -1.35938967731005   -1.53436510756600
O          -0.82358239838675    0.02638111354672   -3.05682253494877
H          -0.62305023620992    0.71789566835828   -2.38373166919348
H          -1.96935918438779   -1.35365403533027   -0.54322024721427
O          -1.96854721662239   -1.23337233997255    1.04969252149839
H          -2.89301666741465   -1.21198763444483    1.30471530199087
O          -0.28146767333883    1.93609546091406   -1.31559116534145
H          -0.35586695698820    2.75144477612269   -1.81572896836832
O           1.54610925244129    0.69680195252976    2.02427686796672
H           2.00329159227850    0.69605627654651    2.86550479305980
O           2.15333798677999    1.95276196669025   -0.28773887152035
H           0.66676244961889    1.85988480321464   -1.03306263226301
H           2.49932406349915    2.79766458356259    0.00516788108928
H           2.01859830833250    1.41448686491377    0.51995185902723
O          -1.05646502551831    1.21424738351915    1.27881122391513
H          -1.62270474876669   -0.30679183031959    1.18122421469923
H          -0.15874767579426    1.11500811599091    1.64293491069434
H          -0.93299966148183    1.49265575071221    0.35886810896063
N           1.01925974811261   -1.75761682088602    1.34529702259111
H           0.11265375836633   -2.04071708852175    1.70007050787451
H           0.89133000253112   -1.61695812502555    0.34129313451116
H           1.38857108190014   -0.28027008100208    1.77729845750772
H           1.66005034140326   -2.53198074790445    1.46449385404616
