    26
        -50.45730957  Gyration_radius:  2.4492175989 Dipole_moment: 7.985
 S          -1.92859837570209   -0.79388527151456    1.22934468908360
O          -0.92730891926466    0.21344744639339    1.69836031071280
O          -3.11920347127660   -0.78437650342862    2.00249222852071
O          -2.09254893216601   -0.67589908030919   -0.21320806678253
O          -1.17676930043500   -2.17800663765145    1.43784638337658
H          -0.66790750419978   -2.26151466329470    0.61361855268232
H          -1.77730407384933    0.51736662715979   -1.16192455798490
O           0.58236747362672   -2.24763648085861   -0.62704233240635
H           0.43875658354768   -3.00426227387935   -1.19633603871582
O          -1.49965431808703    1.24802319244523   -1.78530296054206
H          -2.23685531694041    1.37421297279166   -2.38343079154679
O           2.11490008321962    1.53394366036662   -0.14373548152685
H           2.75114103765187    2.24774552599776   -0.09775793548997
O           0.85290220626681   -0.08904042774422   -2.06936360597279
H           0.61223830358041   -1.44922924022020   -1.23110068669197
H          -0.00172816317438    0.38132380164117   -2.11511003518009
H           1.43750561337293    0.49274027002423   -1.56176583468473
O          -0.25545007714328    2.41268965650688    0.33705638265958
H          -0.74721003335598    2.25323660561067   -0.48710288693229
H          -0.59560661425541    1.73315460118454    0.95549786209611
H           1.20878924942532    1.95068816664292    0.03533894489259
N           1.44152239498210   -0.58953315442830    1.36450400632927
H           1.90287774968993    0.19448150698199    0.85365905171041
H           1.36634927649895   -1.40792264845430    0.74599144800164
H           1.92143250220128   -0.81950174987683    2.22688538590291
H           0.39536261578660   -0.25224591208450    1.57258596848819
