    26
        -50.43947777  Gyration_radius:  2.63606239952 Dipole_moment: 7.879
 S           2.56405221266088   -0.01125085191434   -1.05298242451676
O           1.26712477483327    0.57981668457909   -1.23964188891368
O           3.64387850068823    0.48410288611888   -1.82359065883910
O           2.91510847529626    0.06254099602273    0.46461584574416
O           2.43693028048462   -1.54661946846564   -1.29037063010440
H           1.55467632286307   -1.80484262031091   -0.93523084581070
H           2.18951623970934    0.51303404878753    0.98677384512545
O           0.08480295711869   -2.32480145369271   -0.37519074196277
H           0.06546595727409   -3.27050660650294   -0.53553111553451
O           1.11208360951788    1.09628398282006    2.01223844720384
H           1.50043174383086    0.98434762382655    2.88220446422081
O          -2.56052137042888    0.62398074699287    0.18868187198252
H          -3.37416167888759    1.09705461388185    0.36458837318179
O          -2.05761585895938   -1.35295938241358   -1.57929025401261
H          -2.23352290105524   -0.55880426290515   -1.03250091190825
H          -0.63496249210607   -1.92610245426994   -0.92999137565231
H          -2.85435677781655   -1.88540211256683   -1.54618826121385
O          -0.75313580849191   -0.73048545493159    1.76940443714898
H          -0.37660634751929   -1.35028569417342    1.12658158365574
H           0.37815895150933    0.42353123989358    1.94734960477046
H          -1.48290200548892   -0.28474691261738    1.30363565500736
N          -0.63883844429959    2.34332406957780   -0.14665275129685
H          -0.18004482526424    2.54215226021940    0.73535088250237
H          -1.84161511150369    1.33011751834189    0.02987247180483
H          -0.73525267189931    3.21334384758914   -0.65482543579959
H           0.01130626821024    1.75317674615505   -0.66931016673205
