    26
        -50.45730959  Gyration_radius:  2.44898048266 Dipole_moment: 7.978
 S          -1.73002042148703   -0.70534650815888    1.53840397512969
O          -0.55395652348561    0.16070996919414    1.86092167080601
O          -2.74285433385775   -0.64695169899087    2.53145376807684
O          -2.15269665067182   -0.45418417760562    0.16727112817928
O          -1.10747935980444   -2.16689264487263    1.50704909810861
H          -0.78053160705583   -2.23109983990562    0.59356505471127
H          -1.89932904714158    0.77856160338576   -0.74935644510548
O           0.20085266009241   -2.23419376584848   -0.86870488084718
H          -0.13186489414241   -2.92415624232422   -1.44353418271587
O          -1.66936586294027    1.52882972044453   -1.36862237914033
H          -2.49007767045280    1.77424548673505   -1.79673651928721
O           2.20217742256884    1.33201335557679   -0.46924224689148
H           2.90937463380272    1.97598157481114   -0.50873655966556
O           0.42314694836573    0.00027152897595   -2.19968231626481
H           0.20064680668594   -1.39512167892115   -1.41564110348845
H          -0.36733952842966    0.55234235929601   -2.04498786159582
H           1.15460693571474    0.47999257741115   -1.78400980587340
O           0.08022312709004    2.38988444814615    0.53039001478069
H          -0.20690218687399    1.69742680149245    1.16129800476633
H           1.39885001850800    1.81717131400686   -0.08669205043262
H          -0.57556270879683    2.34622307172504   -0.18694229936143
N           1.60333498056394   -0.83394860361988    1.00988185405930
H           2.21242747482007   -1.17863660936085    1.74276750152167
H           1.32113252804069   -1.58802033467478    0.36978670074614
H           0.66039800669735   -0.41671128861414    1.44384049042933
H           2.04080923218616   -0.05839040830210    0.46625935935257
