    26
        -50.45730961  Gyration_radius:  2.44887108634 Dipole_moment: 7.986
 S          -0.45578603595609   -0.31575070979140    2.35519358066912
O           0.80869419792194    0.21492304320472    1.75777335811345
O          -0.56012067299868   -0.04738787960797    3.74530729524175
O          -1.58614590937989    0.09012060509855    1.53109771276711
O          -0.33468369112428   -1.88373326597147    2.12989804662901
H          -0.68521088301120   -1.98970694103406    1.22915807418588
H          -1.71356052460893    1.25899259628653    0.51054639070338
O          -0.88905600467253   -2.17608354767804   -0.50955598562300
H          -1.65075430034523   -2.73758041460920   -0.65707000580884
O          -1.77411955099310    1.95358503758111   -0.20587262415980
H          -2.60075476097828    2.41277357234177   -0.05434638467378
O           1.62082270388463    0.75991380655765   -1.90709060339830
H           2.25979491612475    1.20837210919365   -2.46119016339307
O           0.91706821485898    2.27014518108345    0.05366620164441
H          -0.03403349285060    2.42211897533548   -0.08341825583600
H           0.95471130181343    1.64463106627965    0.80692332103138
H           1.37535747365688    1.41336486358872   -1.17234620805133
O          -1.08748396753444   -0.01320566736583   -1.95719821865745
H          -0.17738817002052    0.25175596231623   -2.15574722901026
H          -1.05539514863335   -1.34096874272479   -1.03700170090314
H          -1.45365296341598    0.71148042261538   -1.41459054506622
N           1.64889648796657   -1.24888250043232   -0.11810255850752
H           2.49146906341054   -1.76376412908513    0.10970494729148
H           0.86902600347763   -1.88210127224749   -0.33895479350483
H           1.31737527872056   -0.62890673428342    0.75208282379382
H           1.79493043468612   -0.58410543665183   -0.90886647547685
