    26
        -50.46907336  Gyration_radius:  2.47660742074 Dipole_moment: 2.900
 S           1.69800781667131   -1.12579189806761   -0.91387093207029
O           2.66760743287808   -0.62212018049315    0.02940721562563
O           0.95158383006977   -2.26950064639408   -0.40150790754783
O           0.80924348295919   -0.10102457480414   -1.44216614978616
O           2.52265795562617   -1.65438689309391   -2.16254016247690
H           3.20187516330828   -2.15922717660216   -1.72861771268786
H           0.88611020166964    1.42529178474259   -0.83927292603623
O          -1.14664210087056    0.08379370308961    2.20194143288649
H          -1.28075408514490    0.04148011233526    3.14927453615372
O           0.85116400917970    2.32080492762919   -0.42542116662137
H           1.34629003090754    2.90404935700852   -1.00155700626414
O          -1.88159721584143    0.05247943052671   -1.72152282160118
H          -0.92695474687473    0.05093511935842   -1.91359190139867
O          -1.82956967712464    1.94591090530949    0.15813541322182
H          -2.02191837417765    0.84968786921984   -1.15706023085491
H          -1.74458116731970    1.41242078908987    0.96089410620327
H          -0.93611232950964    2.27967597202360   -0.02611097538297
O           1.31489287611792    0.78434440196465    1.81440857492080
H           1.23052150076361    1.57345945816122    1.25693978014169
H          -0.17877660660040    0.31958829668888    2.07271258213495
H           1.87898484259244    0.18315404250022    1.28370418973032
N          -1.50567330202012   -1.68070224400192    0.17491090512473
H          -0.51134058436155   -1.99408346191652   -0.05171327835078
H          -2.12360967544403   -2.47683146133203    0.28097777840024
H          -1.46728395927229   -1.10649172093338    1.04106412255679
H          -1.80412531821118   -1.03691593199372   -0.63941747601738
