    26
        -50.45899157  Gyration_radius:  2.38909082277 Dipole_moment: 5.886
 S          -0.83652495760984   -0.02912409822133   -0.27920587023892
O          -1.98818134542993   -0.10762391607808    0.63434875971800
O          -0.95288851286414    1.17704726702469   -1.13856512198498
O           0.41134857447093    0.05158623604480    0.50933620939741
O          -0.76191478911658   -1.24131363674945   -1.12629451986896
O           1.52164601113401   -0.76356071753191   -2.27856680575774
H           0.68473804205716   -0.99593610510798   -1.79641501822106
H           1.40385975239981   -1.08267331457720   -3.17577590324409
O           1.78276053854828    2.25455949809150    0.44376245505728
H           1.41975160120752    1.35403191260267    0.62977645229506
H           1.04326567031731    2.83495793591916    0.70405757927831
O           0.73033014203322   -1.99691872598499    2.08761368272721
H           0.94125472593278   -1.62965767628366    2.94731390312996
H           0.71463250766098   -1.22450104575414    1.46346750926687
O          -0.83581192569491    2.86578665954781    0.93985361447908
H          -1.30010710410399    2.41050927761273    1.64439755296268
H          -1.03023956971887    2.34586399487883    0.13852955720348
O           1.28430966762567    1.76865719890874   -1.95908958068487
H           1.65394842878970    2.06720721810523   -1.00976234583714
H           1.58844992535851    0.81293824822590   -2.12304598836834
H           0.25048353554555    1.59119303967006   -1.70166677035818
N          -1.57134210676846   -2.55796032855579    0.91781617828794
H          -1.21888633722731   -2.45617164216675   -0.06701861619538
H          -1.96473647662921   -1.53720259017122    0.99895633724303
H          -2.23819622944779   -3.30839100053726    1.05453899049903
H          -0.73194979846500   -2.60330368891199    1.54163777921484
