    26
        -50.46907337  Gyration_radius:  2.4765673828 Dipole_moment: 2.899
 S           0.23870733113665    2.21687056348567    0.11724316118575
O          -0.34377707278556    2.30800349875141    1.43482339053118
O           1.65295340633581    1.86108970593245    0.14734733988584
O          -0.50796620669466    1.36194303277200   -0.79424208541938
O           0.15804053514113    3.67312106795737   -0.50833499873724
H           0.48120265331766    4.19813677338144    0.21583006032515
H          -1.79244736168900    0.50602063148154   -0.23142887379911
O           0.80887286676399   -1.98226125205365    1.25967300319140
H           1.10499203408899   -2.52429619870496    1.99160535580102
O          -2.50493866987545   -0.08726088696612    0.10734305169434
H          -3.33571212208873    0.33398929414599   -0.11543288676000
O           0.21674098935453   -0.65121206536893   -2.45663542685736
H          -0.15317664612159    0.18161151650178   -2.11337131451510
O          -0.76351055595722   -0.17557608910464    2.24112142340492
H           0.23185992401088   -1.26668964819148    1.66484533429917
H          -0.52759949825666    0.76329638566288    2.08581837580422
H          -1.57866566834177   -0.29610964598418    1.72968178764748
O          -1.10995508500409   -2.29105025241698   -0.82232929107514
H          -0.33657917464029   -1.35819066445416   -2.04683782409688
H          -0.47384724640392   -2.39305814626886   -0.10039166668935
H          -1.76287029382334   -1.64687178836574   -0.50233543120505
N           2.09044048938460   -0.56208072872788   -0.66160905670028
H           1.98357704029372    0.44597586812669   -0.32909980671399
H           3.05292843816856   -0.76567202044707   -0.90463658564418
H           1.74614999725435   -1.18420635985302    0.09724465293640
H           1.42457993640743   -0.66552260121546   -1.50589167849670
