    26
        -50.46907333  Gyration_radius:  2.47663054746 Dipole_moment: 2.904
 S           1.03981850510155   -1.36433432941497   -1.42956897084972
O           2.32185535116112   -0.72278539049121   -1.26126790346906
O           0.75633068998637   -2.34415531658019   -0.38677371470069
O          -0.06372313190460   -0.43016656294666   -1.59905804447351
O           1.12081892058494   -2.17395479128612   -2.79209224706299
H           1.95882759559696   -2.61217956546104   -2.69113086582077
H           0.21046511275453    1.18200487423557   -1.44219567080646
O          -2.50330722267082   -0.21595128876941   -0.43954016195416
H          -1.79444599474785   -0.30005114323812   -1.10186662305281
O           0.33511196804159    2.14380004434318   -1.25817780162537
H           0.41196963000924    2.57402598183121   -2.11038848744708
O           0.17739918601085    0.58462378068968    2.40802353379203
H           0.56396356209151    0.74331048647751    3.26977116693780
O           2.01260265889780    1.07842045377419    0.65059766788238
H           2.25485453036491    0.35659571176231    0.03296497672548
H           1.59279155586247    1.73984519770715    0.07885585842665
H           0.91389737187706    0.74475124143271    1.74396631766100
O          -1.60628475279433    2.01774925963675    0.71203948582983
H          -2.38224088217658    0.68550826366037   -0.05662241556956
H          -1.07524485011990    1.65671145131540    1.43583912251270
H          -0.96860320917447    2.26589280559576    0.02251865620932
N          -1.06632889935314   -1.53925821415244    1.27077523781970
H          -1.79254182354193   -1.06291559831429    0.62851954728294
H          -0.31992284139693   -1.93693624397685    0.62044471320079
H          -0.61963847913290   -0.80234311638915    1.85286433401429
H          -1.47842458130400   -2.26820799143018    1.84150229854354
