    26
        -50.45730963  Gyration_radius:  2.44910538036 Dipole_moment: 7.986
 S          -2.16084682226635   -0.54789006841102    0.94247349213584
O          -1.01988303950259    0.10608757043568    1.65504625653333
O          -3.39168148138738   -0.41015617921768    1.63629669992844
O          -2.15611811610146   -0.13729654423831   -0.45502530407030
O          -1.74162663854424   -2.08017620510097    0.91403286689767
H          -1.18542570588452   -2.12619687841750    0.11790419439335
H          -1.50865145643185    1.10719411035541   -1.13018473981145
O           0.15326004021710   -2.17024144190983   -1.02609091606089
H          -0.08902023227050   -2.76037223828658   -1.74037173620406
O          -1.02520690441461    1.85734885035003   -1.58068793025646
H          -1.65871568541111    2.25281124361477   -2.18022941205758
O           2.39450199305143    1.01740123973197    0.27474196488391
H           3.15975157610598    1.54869971257754    0.49505427191369
O           1.00746072151518    0.09672849166426   -1.99802180192110
H           1.65062009560105    0.43008115334959   -1.35529685023845
H           0.40713472274846   -1.30306829757248   -1.45825999076673
H           0.27989624069116    0.74816682410797   -1.99523762807026
O           0.22854357543558    2.30641987624040    0.79331692327069
H           1.58398354830109    1.58837536732050    0.48422902067530
H          -0.20508331618594    2.41416170458611   -0.07090645454204
H          -0.30500196814449    1.62090729894440    1.24629929341905
N           1.14720079205817   -1.13600374467583    1.29681181007797
H           1.81012368620933   -0.39707408129475    0.97585502637888
H           0.96081786332371   -1.79103429744109    0.52595741859108
H           1.48334704815795   -1.61985470527101    2.12130234389183
H           0.18061947310614   -0.61501875144751    1.51099118100640
