    26
        -50.43947777  Gyration_radius:  2.63438557661 Dipole_moment: 7.864
 S          -2.67304108646421   -0.46102230078833   -0.55107819915519
O          -1.70042327618314   -0.54667236502972    0.50395042985931
O          -4.03403539252093   -0.68167729612478   -0.22773709094417
O          -2.50913455134829    0.92394294799563   -1.24848474302894
O          -2.25446586531730   -1.45268367538505   -1.67866966236308
H          -1.26947231818105   -1.43332834001994   -1.70410427955211
H          -1.79000334444882    1.46915893335366   -0.81496857218014
O           0.38346020523318   -1.47206945388997   -1.80308401774596
H           0.58771342396402   -2.08873204695794   -2.50908814912382
O           2.23330415374700    0.03883936830900    1.41123835819187
H           2.91326558820658    0.29036066461472    2.03661958447782
O          -0.61768953379581    2.44679443369920   -0.34534443729703
H          -0.65362800602894    3.19500535572288   -0.94451662115640
O           1.67991762549157   -2.36768752554781    0.31900630994106
H           1.82357154552575   -1.53496885388770    0.81526317280524
H           0.74956772492359   -1.86298554862839   -0.96769495727750
H           2.54776020746940   -2.74786208424539    0.17188671038841
O           1.45520338201010    1.00460069356971   -1.04984251780451
H           1.85162040101688    0.70853323949144   -0.21101810170811
H           1.05572403745007    0.21290931554759   -1.44054190959812
H           0.19681843591835    1.92821978568967   -0.59694271410653
N          -0.05872824889232    0.94169062467194    2.24363964040526
H          -0.23441586974690    1.86821401035241    1.87136053629622
H          -0.67226900643517    0.31311546391207    1.72154594512244
H           1.34931128306932    0.38057801582174    1.78880319412111
H          -0.35993153466334    0.92772662775400    3.20980210143359
