    26
        -50.43726310  Gyration_radius:  2.43919399258 Dipole_moment: 9.662
 S          -2.06193418600439   -0.81032172908108   -1.05313722867650
O          -0.77752306813179   -0.47210933997697   -1.69185500344346
O          -2.78502500630311   -1.83588315428533   -1.72316673601279
O          -1.83170343134821   -1.05974023817409    0.38228759244647
O          -2.90874037986817    0.52665326322897   -1.06560308560335
H          -2.45448859714172    1.01182494156296   -0.36831328994442
H          -0.69610555626896   -1.53507559663280    1.11955655582030
O           2.38296066695159    0.72798503993065    0.07971672891544
H           3.29813172217498    0.67050071336794    0.35558063859279
O          -1.20153383764632    1.95896655124348    0.64036879242158
H          -1.48325973152665    2.84420375574502    0.87640601116299
O           0.08832016040483   -1.71948247570314    1.77572023578190
H          -0.32967491020736   -2.07863649307906    2.56087900342237
O           0.25401765181636    1.87780195339101   -1.44060820091671
H          -0.64671255346808    2.03718787241838   -0.21249638896622
H           1.14970479128133    1.66242301578088   -1.15077908576668
H          -0.15033148241413    1.00798426245221   -1.70636049797985
O           0.65229447821373    0.70226071765685    1.90348675101267
H           1.41010935909917    0.77734823016580    1.18318415142660
H          -0.15403270426155    1.17210715385026    1.49797726229588
H           0.41698811850924   -0.34392715818543    1.91892975310735
N           1.57876800264448   -1.51250605023899   -0.80189368874489
H           0.67157025442410   -1.22845825799194   -1.20481566288505
H           2.11617925787627   -0.21812953469538   -0.32911215957527
H           1.37536053789851   -2.14085024096827   -0.03355754154026
H           2.08666046329690   -2.02212722178189   -1.51239488635204
