    26
        -50.45284133  Gyration_radius:  2.44720629415 Dipole_moment: 3.823
 S           1.02152998256007   -1.36703564792133   -0.49349129386609
O          -0.35711448677845   -1.12854805611917   -0.86893327918310
O           1.99004303309044   -0.93838178004321   -1.43821773033057
O           1.25736107783916   -0.72708111908049    0.89537425091727
O           1.20140673849122   -2.85293388604614   -0.16365312671497
H           0.62540848178719   -3.01219367687002    0.64365193148537
H           1.22737799478505    0.30323348978075    0.88103851828884
O          -0.23931809087924   -2.90341348953277    1.97228561718177
H           0.36028701664534   -2.47345516096803    2.58735720490270
O           1.05994577411415    1.77944670239167    0.98273418546078
H           1.29105217057118    2.08282694882663    1.86320690040955
O          -1.44543102261930    1.26960330985261   -1.77790436729579
H          -1.24623276834623    0.32824377124466   -1.68908862790939
O          -1.97797373475444   -1.00525742340214    1.15116683673675
H          -1.41632567455898   -1.02387171192330    0.33686360954811
H          -2.85988680534238   -1.26330109480336    0.87489743582465
H          -0.96232095017000   -2.26046384085065    1.80527616265968
O          -1.49319249684380    1.77048686132306    0.80661260361262
H           0.04763802757262    1.86258000051936    0.91030129723199
H          -1.59951154109079    1.71265087650900   -0.18031204616205
H          -1.76230632778731    0.90248365595462    1.14140241314195
N           1.18789275090206    1.83569528103644   -2.09120929198337
H           1.51980659229802    0.87440701679069   -2.07191459616646
H          -0.57804268511876    1.66137631077266   -2.02973088255503
H           1.46865076000777    2.25689581482627   -1.21300503979257
H           1.67925617331944    2.31600684787853   -2.83470868542237
