    26
        -50.45284138  Gyration_radius:  2.44728148982 Dipole_moment: 3.823
 S          -1.05815150376491   -0.83171678270688   -1.15886301693034
O          -0.03025074764567   -1.43070451371708   -0.33237594106628
O          -2.37737260405586   -0.91732543709829   -0.64252156339821
O          -0.65077338340505    0.63354735396110   -1.44322278567694
O          -0.98334926794533   -1.43302033631352   -2.56667565091938
H          -0.08875100635391   -1.14859467931398   -2.92421762799888
H          -0.68706527688685    1.23753129903620   -0.60848472789400
O           1.28997402186292   -0.42730486774456   -3.24571959472870
H           1.02597266195416    0.48042967912805   -3.41589461468835
O           0.37592739052739   -1.00164847316430    2.39022318167323
H           0.29197270965097   -1.44075914238793    1.53349884794494
O          -0.57230942212758    2.14755062774982    0.56440694720797
H          -0.38141191344893    3.04271810956144    0.27639002569967
O           2.33769830588548   -0.46228455908437   -0.75585241634433
H           3.00114665405277   -1.11938451500101   -0.53496571786312
H           1.81478298496331   -0.40539267359733   -2.41611827088024
H           1.46285538855478   -0.86555316748135   -0.53062822561608
O           1.59961229089466    1.13974832348187    1.46828794481703
H           0.28298623233027    1.79875438504489    0.99308812220725
H           1.23524260222340    0.35997289737559    1.96626985890205
H           2.04026804541493    0.76186884295624    0.69313778630650
N          -2.12525888638775    0.01919131365792    2.15498790424155
H          -0.52827160132779   -0.64755319993637    2.55232564395007
H          -2.93207551246836   -0.05590578450894    2.76193269307987
H          -1.98633304788578    1.00129468548038    1.94586906175088
H          -2.35706510474312   -0.43545936569859    1.27512212612871
