    26
        -50.45899155  Gyration_radius:  2.38923585871 Dipole_moment: 5.885
 S           0.11345497616007    0.22062016734048    0.84725600732781
O           0.62980144134782   -0.71319235158077    1.86135574411936
O           1.03993610656883    1.36240010209662    0.67289023388944
O           0.00233981786036   -0.47696743111545   -0.45146128076016
O          -1.22605222900537    0.71883707894277    1.25269537348071
O          -2.33833292493997   -1.71858140195156    1.17761434551256
H          -1.64558524387764   -2.30771002361490    1.48121786585664
H          -2.00611155716822   -0.82335169390721    1.37416796774017
O           2.28379431588794   -1.42862170863954   -1.27418425690370
H           2.11061001576602   -2.33957999631911   -1.51622037700446
H           1.39668308721904   -1.03469863960822   -1.06354413873002
O          -2.36198559840509   -0.90755821607841   -1.43256055451605
H          -1.39240470157946   -0.87174901874557   -1.24291615311644
H          -2.71219715277614   -1.36015155652246   -0.64257277116971
O          -0.12381242416266    2.49481600581057   -1.35998609133335
H           0.37221671994107    2.03752206231627   -0.63069024137819
H          -0.02303938258157    3.43478631683770   -1.19551944482273
O          -2.40679137013740    1.49958745908917   -0.75371919972577
H          -2.52240996791183    0.53142442108403   -1.17405794627931
H          -1.98282755019514    1.23072109210451    0.20234458253228
H          -1.59548859582767    1.93091991441780   -1.18794760842189
N           2.95176420595830   -0.30785083453834    1.02320124593256
H           2.99425604430112   -0.83982105990914    0.12254989708796
H           2.07495713422272   -0.68292062284009    1.56525400083057
H           3.82306889944503   -0.28477313056367    1.53973881000688
H           2.54415593389342    0.63589307589678    0.80509398984033
