    26
        -50.45123039  Gyration_radius:  2.47041213927 Dipole_moment: 4.655
 S          -1.52821203540051    0.17255771210331    1.83853983749176
O          -0.60967153476445    1.06974566794221    1.17326350706278
O          -2.54219041635314    0.77862111644890    2.61839503679224
O          -2.13478381528905   -0.77237275136925    0.75806771229243
O          -0.72413032999683   -0.82438528892659    2.69197701061273
H          -0.16803177236955   -1.34434778721224    2.03592947620075
H          -2.13805787312247   -0.35237828384542   -0.15003798887049
O           0.59358771942013   -2.17255065953214    0.94696465479989
H           0.25232989816371   -3.06794718182550    0.99115756785324
O          -2.10359108709591    0.24697135049267   -1.61751294274533
H          -2.96125870828479    0.58505872176698   -1.87941985185232
O           1.90267087351700    0.71212383512644   -1.68386439295916
H           2.74518570778844    0.77920799382135   -2.13354684339430
O           0.18871668002264   -1.41604704587562   -1.53128269061793
H           0.42979019140459   -1.86926956757150    0.00910451749721
H          -0.68552991536203   -1.04174493024368   -1.69463838182685
H           0.82377247293077   -0.69586876760321   -1.70532346118473
O          -0.40937810477924    2.15763171483010   -1.28297048717949
H          -0.43221500816482    2.02360825984572   -0.31939050031952
H           0.44562499919504    1.79032614610396   -1.56788753170417
H          -1.47875349792008    1.03955289813287   -1.57281883886160
N           2.17274801801721    0.43395471206013    0.92674777240933
H           2.82509507913579    0.92492703769386    1.52447456120484
H           2.09534087951664    0.63705025446899   -0.69976568410653
H           2.20772041124193   -0.55064231671571    1.16461848555182
H           1.23322115855147    0.75621715989374    1.15921947585707
