    26
        -50.44974523  Gyration_radius:  2.55362049395 Dipole_moment: 5.643
 S          -1.47430274037372   -1.85637890840255    1.23241356885949
O          -0.32586598525254   -1.02477210602489    1.52383798542376
O          -1.86133140705804   -2.79780703419014    2.21202172937811
O          -2.67611555839807   -0.93067240839770    0.90875926021949
O          -1.20268047086692   -2.59496517526890   -0.10471041542156
H          -0.61578504434785   -2.06048832375446   -0.71385171617829
H          -2.38326819796003   -0.07838738092112    0.48024306752316
O           0.43683439357176   -1.37547191322747   -1.69524164965220
H           0.76114712847071   -2.04112883716649   -2.30403790824009
O          -1.99447588274589    1.38674251431104   -0.05136515261421
H          -2.72698618461798    1.97384881156629    0.14320437910065
O           1.84421868705890    2.04555798544581   -0.25860805253050
H           2.14322665702684    2.93640665295788   -0.44418962843015
O          -0.08307084195398    1.65726292690773    1.63807838206864
H          -1.27066527870068    1.59025457483907    0.62902399763082
H          -0.07220959187597    0.69928632016038    1.81438313556624
H           0.70247162030609    1.83387198374970    1.08251911781392
O          -0.01723546227431    1.33234925070089   -2.01003034849698
H           1.20179034294306    1.81251792622670   -0.97813929099685
H           0.11352879262504    0.37370139109049   -2.08682863600775
H          -0.82931711737947    1.43202306361894   -1.49001802138793
N           2.18189031898585   -0.86594844135178    0.14106824926097
H           1.52149513578146   -0.99260889798517    0.90519890128703
H           2.41381595823090    0.12173554099276    0.09823002126693
H           3.02277596044135   -1.38724307464862    0.34879012161407
H           1.19011474838148   -1.18968645126740   -1.02075110707915
