    26
        -50.45899145  Gyration_radius:  2.38906871679 Dipole_moment: 5.886
 S          -0.00009911149122    0.58428820846084    0.66154163205622
O          -0.37997014476806    1.85628989687974   -0.00525385500031
O          -0.78821485430222    0.40775918471207    1.89226335568741
O          -0.26206780036005   -0.54514794459641   -0.25568671810547
O           1.44831004251520    0.59422239542349    0.96913983063478
O          -1.53019409037400   -0.07758171087297   -2.47180538258552
H          -1.06575127247798   -0.47908769638510   -1.69693677179233
H          -2.29761886390080    0.35528378230677   -2.05324472579975
O           2.35798764995751    0.60946418894577   -1.46859133813664
H           2.02951185844836    0.53196932756581   -0.53420992448761
H           3.13080228534035    1.17677423736056   -1.42799655518550
O           0.33980747138360   -2.85020161506412    0.79927008778483
H           0.15597021052661   -2.00834368640243    0.30539765813816
H          -0.42276297018964   -3.41038761493248    0.64712732106596
O          -2.91131212003085    1.07500974615405   -0.41329907924397
H          -2.06766151216663    1.50954077846531   -0.19002986579881
H          -3.12716545295760    0.55043761843281    0.35971664999172
O           0.22562642291775    1.70187649059982   -2.37974029221459
H          -0.04847406641148    1.90962087625484   -1.35595433587300
H           1.10795047038700    1.22079312870134   -2.22862495358890
H          -0.50663949854487    0.96949301225568   -2.61329161246650
N           0.94650827766961   -1.17678735713356    2.75180935023661
H           1.57357703931391   -0.56184203926303    2.17450788024709
H           0.78596103668413   -2.05347473252201    2.20274735916522
H           1.25928223565251   -1.32778232297882    3.70358549393867
H           0.04663676718024   -0.56218615236768    2.62755878133183
