    26
        -50.45123066  Gyration_radius:  2.47063068669 Dipole_moment: 4.662
 S          -1.87006065471337    0.12524711724727    1.49501468804474
O          -1.42312011386556   -0.79334981982289    0.47136356929094
O          -3.23733345851971    0.04747106499972    1.85319053319556
O          -0.98217201542982   -0.04320975108980    2.74066265588191
O          -1.48566118814140    1.56525226721321    1.04042588514940
H          -1.42527884956169    1.64159289650141    0.04469845857973
H          -0.05714723470888    0.20948008012569    2.43974207016837
O           1.63246866767116   -1.01233484711662   -1.81169597649907
H           2.39458827578659   -1.40946347792801   -2.23361096232920
O          -1.25324108335201    1.79268790241691   -1.52436156033586
H          -2.01910273839727    2.20799198606616   -1.92367703992710
O           1.33277472731135    0.70956411217380    1.92019230142338
H           1.54098152097472    1.50728134853109    2.41070095180847
O          -1.07694920085000   -0.68684560152373   -2.19761962581003
H          -1.21113612957210    0.84996985290561   -1.88526440039302
H          -0.12216449006942   -0.86552617900024   -2.25744807962980
H          -1.32809934839215   -0.95974365180563   -1.29790428745181
O           1.40085345416089    1.43122769142377   -0.60029184021923
H           1.34053913676675    0.97734074804553    0.95756094340624
H           1.56102653355793    0.61794977860828   -1.11516450977825
H           0.57100249847834    1.79444670061748   -0.93273139327074
N           1.16272040527978   -2.02251854256809    0.58085001723059
H           1.51035487161059   -1.47034593082903   -0.92482592289925
H           1.64819222717916   -1.47865850955119    1.28495730483093
H           0.18376046430785   -1.73811237898009    0.61783620225545
H           1.21220374248891   -2.99739485666345    0.84740000727770
