    26
        -50.44534752  Gyration_radius:  2.53758662269 Dipole_moment: 7.417
 S           0.11314871953838    0.20238265430825   -2.23648903401720
O           0.42663764973475    1.35445574841486   -1.27493894199657
O           0.85664167748738    0.26033683970377   -3.43973123974712
O           0.22245611290507   -1.05209821367905   -1.50188710586505
O          -1.38629918522656    0.45305245093071   -2.51505186522342
H          -1.78044071662757    0.52143941890125   -1.60613505077221
H           1.09760550880485   -1.22596828911790   -0.15823660413944
O           1.61402149176019   -1.26179987790231    0.68417337615417
H           2.13452329992097   -2.06552153644791    0.64821966382386
O          -2.30505201502101    0.39521951169446   -0.08097321941160
H          -3.20773096635427    0.69137422429436    0.05103964759764
O           1.54002015720733    2.43631557675405    2.14455696897824
H           1.90569103164875    2.37830878837126    3.02813047521013
O           2.56976895273595    1.20388119481251    0.01512767198347
H           1.36409839526361    1.32524047927472   -0.82275177894302
H           2.33068382633316    1.80545817518202    0.75860572273158
H           2.44583820803604    0.30135945027534    0.36385045134190
O          -0.27451248903812    0.46897382282781    1.90757881747374
H          -0.90671880057893    0.62109521118123    1.19071617850004
H           0.32734416555756   -0.22027898061536    1.59512715854097
H           0.77395282183197    1.81995411322204    2.11936098513118
N          -2.01073702141467   -2.21697910827555   -0.14892782593978
H          -1.73186637868267   -2.71413556745262    0.68727059927345
H          -1.17747082085386   -2.06290646854547   -0.71786420981270
H          -2.64114744581173   -2.80998333813516   -0.67282584345932
H          -2.30045618916888   -0.60917627996843   -0.01794499742073
