    26
        -50.43947794  Gyration_radius:  2.63511135673 Dipole_moment: 7.868
 S          -1.89097120911056    0.40039804837182    1.98351602800005
O          -1.07189255511940   -0.61868168943661    1.38612501998858
O          -2.61392642876688    0.07725052263854    3.15745290117778
O          -0.99686950738964    1.65241289750127    2.23730131802577
O          -2.88825739835590    0.91676245458617    0.90239808822669
H          -2.39686226756705    0.89807851791851    0.04823394958195
H          -0.05106783979438    1.49143234230431    1.95131473125616
O           1.46940295745985    1.47941010508925    1.46189373976748
H           1.80392122670607    2.35984676388349    1.64369886074050
O           1.67533808893159   -1.33776237028893   -1.54477158847457
H           2.44649354417036   -1.80807143946413   -1.86237817257818
O          -1.65273031363570    0.88439658542427   -1.43109758174995
H          -2.30623965715756    1.20963248705122   -2.05366508303270
O           1.09660768097473    1.32524607027148   -1.12877026217281
H           0.13160380181390    1.31937972689426   -1.21701711092343
H           1.36964293567560    1.41926511473328    0.47098804816043
H           1.38513791888220    0.42720760878550   -1.37066026014325
O          -0.89454025436775   -1.46987603459574   -2.36205806807444
H          -0.81799038455887   -1.55550643393430   -3.31403821139225
H           0.01663406874064   -1.52660418484518   -2.00570653073968
H          -1.45545343182076   -0.05366175044482   -1.68811814009053
N           1.56977774599988   -1.53660001994863    1.04595130989252
H           2.06173068572771   -0.76584438538809    1.48396359327282
H           1.65124455773034   -1.46722612683494   -0.53325398187651
H           1.78361996630830   -2.38078293779329    1.56171515773381
H           0.57564607852304   -1.34010186247827    1.17698224542048
