    26
        -50.45212775  Gyration_radius:  2.45245878135 Dipole_moment: 5.973
 S           2.23074842869041   -0.54700263831174   -0.08110424263440
O           1.60064578375880    0.47077184409635   -0.89725490746581
O           3.49635316171184   -0.20078218616486    0.45593758759382
O           1.23745308767609   -0.93028706611285    1.05255673978898
O           2.28847845902710   -1.86203279364846   -0.86596150134669
H           1.31889242178056   -2.10072300659557   -1.01328408810471
H           1.05120040042293   -0.12209763983036    1.63456760791213
O          -0.20790354409799   -2.30393886924644   -1.25273269623817
H          -0.32610915842404   -3.01077069432080   -1.89080304602443
O          -2.16017194143189    1.30391944027657   -0.57135776830198
H          -3.06569915055681    1.61187951348978   -0.52721634020103
O           0.73679368218118    1.18292945735004    2.38845022119532
H           1.56440746655698    1.53221459284967    2.72561102248953
O          -0.57867836098553   -0.01400331017125   -2.39268984661377
H          -0.44727499173952   -1.45108013902883   -1.73144047932819
H          -1.24101755921649    0.50763277334794   -1.90654900938221
H           0.28123312133907    0.29378665012928   -2.05256856689350
O           0.19975551321788    2.48774992993457    0.22027704310514
H          -0.69134202935992    2.24491610389715   -0.08809145152691
H           0.46936769361836    1.78400429226494    1.62762743120847
H           0.80654671242056    1.93689933071629   -0.30581885525291
N          -1.72927098968246   -0.65359049290941    1.17128524033565
H          -1.04940678999952   -1.25185879789794    0.71178049759669
H          -2.06367720911573    0.56214844313151    0.09537537405959
H          -2.46543984384132   -1.24607064691831    1.53487672263344
H          -1.25588437349631   -0.22461410001871    1.95852734186881
