    26
        -50.45212776  Gyration_radius:  2.4526812382 Dipole_moment: 5.981
 S          -1.99599728053191   -1.00251382936398   -0.55273181284045
O          -1.32235946051401   -0.00184142781364   -1.35515390875092
O          -2.55314169411022   -2.08869349753880   -1.27362425906975
O          -0.98931479407435   -1.51026290538664    0.51852981863222
O          -3.03935257234491   -0.31937416596566    0.33812266057392
H          -2.49282898942305    0.28207114157689    0.93638934201971
H          -0.19053945249258   -1.93867396195166    0.06639381819520
O          -1.54545241518292    1.23357623285343    1.72927089454144
H          -2.08138216490959    1.86020498552272    2.21997542606552
O           1.03669294682989   -2.46278012517215   -0.70333046108778
H           0.74104879121646   -3.16872961177557   -1.28192493350087
O           2.06743838931420    1.52636933531281   -0.29879705650661
H           2.92492691657843    1.92279713953535   -0.14297034442066
O          -0.54657980992855    2.37275078180770   -0.36464448414158
H           0.41988137358772    2.26020041894193   -0.38540307240359
H          -0.89438680091278    1.65258671458969   -0.92160681743600
H          -1.11986211913969    1.75459897905400    0.98007250269050
O           1.23307884475027   -0.33149860235485   -2.15606845430917
H           0.27677503044917   -0.15736785940729   -2.09611813239069
H           1.65058431284056    0.37533878583754   -1.63241219885372
H           1.23853762325688   -1.67869366366653   -1.30010531810819
N           1.43285810897834   -0.17375185903912    1.64045156774672
H           1.61567354701619   -1.09877532913453    1.26787068446735
H           0.42484345807780   -0.08784195400127    1.72893131224933
H           1.82898078977491   -0.12841500872466    2.57116131682415
H           1.87987741087031    0.90871929624526    0.46772191983185
