    26
        -50.45212774  Gyration_radius:  2.45250850519 Dipole_moment: 5.970
 S           1.86875170005900    0.73626557156046    1.11646081270336
O           1.44060711990174    1.21742036118346   -0.18132729985180
O           2.32469851685433    1.73251993933485    2.01625650045914
O           0.69232328648046   -0.06974494405432    1.73675095091039
O           2.90680020673963   -0.37508890406262    0.92759376988724
H           2.39942081376034   -1.10379413481908    0.44762198445002
H          -0.10838537166662    0.53655990626860    1.86996447658326
O           1.53120893836972   -2.10647870466839   -0.37109741633441
H           2.10362175288100   -2.79302666954744   -0.71987450111527
O          -1.77907567790392   -0.09010359073432   -1.87674445834222
H          -2.58109097628433   -0.31649777048697   -2.34830495661626
O          -1.30838075852343    1.49994963797267    1.92318167607286
H          -1.05430229069242    2.25452024899883    2.45860950885052
O           0.92401912163635   -0.42919618940310   -2.24136921700325
H           1.26309840529893   -1.53822753371797   -1.15786295918222
H          -0.04132211067314   -0.32470379825838   -2.30824005473463
H           1.21718339068379    0.30781470362607   -1.67519600752148
O          -1.04061822972035    2.21074947858046   -0.54971606117113
H          -0.08034522267695    2.04922744464735   -0.53137048729543
H          -1.40157435584919    1.51380259870820   -1.12597939764908
H          -1.33206425627977    1.82751765481621    0.97260671804524
N          -1.60474008501039   -1.42984191193093    0.40994665612437
H          -0.60906108608369   -1.58831871690394    0.53155962547984
H          -1.76395442799847   -0.63350755943192   -1.03489168870131
H          -2.07941538924585   -2.30847424957052    0.57700298969740
H          -1.88740300393565   -0.77934286806777    1.13441883623431
