    26
        -50.44023271  Gyration_radius:  2.54312795091 Dipole_moment: 6.122
 S          -0.04493002480422    1.73145380472833    1.82449058433082
O           0.96465915753725    1.03969967505155    1.07069299307617
O           0.33725797940783    2.93391721343009    2.47002825725945
O          -1.25460490792080    1.97336156807157    0.85631990405791
O          -0.67922912584071    0.76912287016297    2.85452266879865
H          -1.11442435445623    0.03989770867134    2.32169365548495
H          -0.87961991590997    2.00817908731598   -0.06073901450886
O          -1.86998873138155   -1.00351586481708    1.40588017216716
H          -2.80634877164586   -0.85823950204723    1.55578347754882
O          -0.21954275019050    2.06401063084388   -1.53855100533017
H           0.09404178201795    2.96719115152239   -1.61223138205974
O           0.84279936529245   -1.95106948735798   -1.49671868959379
H           0.95707657849487   -2.85923695809920   -1.77794717930441
O           1.74341078207848    0.47045508046245   -2.34123716409689
H           1.71224011748777    0.37412064422422   -3.29514272537031
H           0.57365664490797    1.49049417018660   -1.69995450368241
H           1.54326208683237   -0.40910891352968   -1.96866987390422
O          -1.49737315388214   -0.56715621388594   -1.16819781905372
H          -1.28689644757438    0.34814722901537   -1.37951561095703
H          -0.70047392456949   -1.08895213765871   -1.38093047916362
H          -1.72331230586986   -0.82634992122772    0.43691137977149
N           1.08736107082848   -1.77552263162008    1.09467051120811
H           1.17252104220727   -0.75684980955934    1.13057940109697
H           1.84596492255164   -2.16672277082219    1.63785232802537
H           0.21495099440969   -2.01262390347036    1.55266824969558
H           0.98754188999183   -1.93470270958784   -0.49225815549716
