    26
        -50.45212682  Gyration_radius:  2.45219154418 Dipole_moment: 5.945
 S          -0.75258144651057   -0.08165466641449   -2.16153148479261
O           0.04427132297807    0.99777869623838   -1.61501025248439
O          -0.38283116417910   -0.51528638766117   -3.45985226298588
O          -0.70644310007369   -1.26475544075963   -1.15315792137686
O          -2.23554505899016    0.29665708555298   -2.08975005017605
H          -2.41877068870689    0.37970829472374   -1.10005995280327
H           0.24527281019356   -1.60336700250361   -1.06856713966402
O           1.73369024753645   -1.96062505534596   -0.91940793158341
H           2.06844811658116   -2.17321256197127   -1.79314865683267
O          -2.54449700550225    0.56406609282832    0.44091105456718
H          -3.38516666910602    0.98601128477416    0.63055674987685
O           1.29047225048390    0.91712934340698    2.04566808265165
H           1.67921105957119    0.96952785262401    2.91911064043802
O          -0.63139864900008    2.29112506647039    0.64075251749193
H          -0.32375544389276    2.05359017444786   -0.25293021756642
H          -1.83666240312669    1.25765097406825    0.61774951868180
H           0.06585998005925    1.96946950789876    1.23876797750674
O           2.41656789742735    0.48769166943183   -0.43523716127551
H           2.18482360363386    0.71472856583418    0.48272397156176
H           2.11993010512337   -1.06270327355184   -0.68357376870446
H           1.68421698541447    0.83803245468377   -0.97335271121773
N          -0.12654726784035   -1.31183791511826    1.76165123305954
H          -0.88417730929314   -1.04508247504816    1.14024705179437
H           0.76202040350971    0.06700340154045    2.00440413617892
H          -0.52987775393314   -1.81872632357567    2.53986473092437
H           0.46346917766585   -1.95291938256891    1.24317186672548
