    26
        -50.45004757  Gyration_radius:  2.5383350107 Dipole_moment: 6.003
 S          -1.69939218427423   -1.56346961939700   -1.23946507606372
O          -1.55423421284994   -0.88271457057397    0.02867641137170
O          -2.86711870369933   -2.33377155826754   -1.43816116961234
O          -1.56956983216537   -0.51192251228023   -2.37268096715152
O          -0.45611657720068   -2.47079754744484   -1.44009416169892
H           0.35639770711727   -2.05657536603515   -1.03224575563664
H          -1.10536488300326    0.32131816108887   -2.07460424295710
O           1.67056868617258   -1.54157666001397   -0.28403822668123
H           2.31285280243844   -2.25212668751901   -0.24827980446891
O          -0.36201449214597    1.70040178253636   -1.77636559501020
H          -0.15067995343503    2.11953899990015   -2.61209410249851
O           0.78327578560310    1.79199672635232    1.94419519337940
H           0.91174139109129    2.65852448739803    2.33148101819627
O           1.83040670606231    1.20063523513244   -0.50290538535961
H           1.91200771758935    0.23346648823635   -0.51702385686349
H           0.51627495283460    1.52301342642928   -1.31425627018397
H           1.58856161699047    1.42897138969810    0.41765870603206
O          -1.56666591110769    1.72227848416991    0.74166951298331
H          -1.35946421188501    2.05123255198894   -0.14270007441478
H          -1.71152759590306    0.76799351807430    0.61160001898974
H          -0.13859389527907    1.78906316722998    1.57127149860666
N           0.52581423185647   -1.15324695177431    1.99185760063224
H           0.51885593572726   -1.77027290379180    2.79276041991679
H           1.28280880061440   -1.43106647524115    0.66425668961220
H          -0.40999999120891   -1.12844534833927    1.59130365654304
H           0.74117611005835   -0.21244820755761    2.30818396233680
