    26
        -50.46452143  Gyration_radius:  2.52824888906 Dipole_moment: 7.099
 S          -0.28476367621477   -0.49337501632259    0.55845839930970
O          -0.65857754203269   -1.86909489690741    0.33914587583023
O          -1.42370449384720    0.36684718821428    0.88702984107959
O           0.80142539742270   -0.30295709022821    1.50370892956234
O           0.29170147479982    0.07009131739776   -0.80338568488687
O          -0.24176516801433    2.21476345021918    2.22334463154566
H          -0.83865959345884    1.57120153418282    1.75266701960506
H           0.17922352203180    1.67811162404768    2.90071060067996
O          -0.45482926109300   -3.08965365291871   -2.00205291672813
H          -0.53747306589951   -2.75165187049922   -1.08372983021743
H           0.43736483141585   -3.42947401881074   -2.08046367653610
O           3.23650422750689    0.56695988268081    1.19662679717388
H           3.68790120496327    0.49780501011510    2.03921924297966
H           2.39189939853516    0.06276060208954    1.29750789948024
O          -3.13980257467564   -0.91682914337104   -0.66559517312577
H          -2.65152685897842   -0.36000611901223   -0.02669291672033
H          -2.94962723547481   -1.81987930180266   -0.39481910265325
O          -1.33146310212410   -0.62025918646453   -2.56952305681195
H          -1.05701702520419   -1.55627611996934   -2.66221378612038
H          -2.15965471313279   -0.65789201793135   -2.02868074681484
H          -0.37567520362560   -0.17787409292352   -1.57319092024584
N           1.42876052920281    2.24036380348378    0.22094365685146
H           1.57432669556961    3.08879608768940   -0.31596197761122
H           0.97866525834753    1.48672728333196   -0.35002191070796
H           2.32264832749585    1.81910042912799    0.57187927619481
H           0.77411865648396    2.38169429458302    1.06508951889470
