    26
        -50.45406796  Gyration_radius:  2.52664400789 Dipole_moment: 5.867
 S           0.79109799204202   -1.66499829282142   -1.36585099797560
O           2.02444354383979   -1.16905703544845   -1.91509690827017
O           0.97478258084486   -2.44454067495151   -0.13402686684079
O          -0.24940784290678   -0.67387818300198   -1.18677142572767
O           0.22224343770226   -2.70335047004032   -2.43985182706604
H           1.01730695463896   -2.97336217787288   -2.88822558225582
H          -1.60832778556906   -0.54956868600853   -0.40268418630005
O          -2.37968944373606   -0.53383746445796    0.22887956171081
H          -3.14072948660824   -0.81962602462186   -0.27758468089626
O          -0.14418197170383    2.72298083092374   -1.41142782885833
H           0.25081669630896    3.58993229889917   -1.51498141470055
O           0.76870645969233    0.97938323278734    1.91903015638524
H           1.10606875781235    1.56870251681066    2.59434092698138
O           1.96158883907009    1.23719642478745   -0.70348333373063
H           2.04079280426552    0.40370781658572   -1.20065711123248
H           0.61055852272594    2.09967416975696   -1.28397628552554
H           1.70332171415235    0.99758499512999    0.19629771934041
O          -1.33708022256635    2.01929716813006    0.86147918726851
H          -1.87620008031925    1.24662215317033    0.63923577159079
H          -0.03566119963695    1.44148802096925    1.51393524510970
H          -0.99142090234165    2.34563280561236   -0.00321462607507
N          -0.35595830154113   -1.43503502373631    1.78830813780091
H          -1.28721367771275   -1.20420075827181    1.39542586560877
H          -0.42059577553462   -2.02855659560209    2.60737725469005
H           0.21557241319253   -1.91721514310593    0.98978417910209
H           0.13916598390457   -0.53497591361258    1.99373904986919
