    26
        -50.45406817  Gyration_radius:  2.52669686832 Dipole_moment: 5.861
 S           0.88760117581950   -0.53803877018753   -2.04626476279224
O           1.36597041016613    0.70063968113468   -2.59917083403374
O           1.91403901787311   -1.27462985773061   -1.29601370125242
O          -0.33206550348610   -0.43972807357296   -1.27193430314162
O           0.53391300979099   -1.46678273810885   -3.29805544356398
H           1.10180254434219   -1.10847937846245   -3.97278338650494
H          -1.11726860866215   -1.32057438092224   -0.22988458979716
O          -1.45917183103961   -1.89969567172135    0.50616300305183
H          -2.10169469655227   -2.48516270147897    0.10384232911512
O           0.87485050706578    0.84986105058023    1.93545204194227
H           1.11135699556838    1.37817567060485    2.69841854784054
O          -2.04963847523435    2.27871821049914   -0.15955368811923
H          -2.22631049795159    3.20654139187903    0.00269116086978
O          -1.68533299578995    0.57714373800779    1.85449202893249
H          -1.93544918493789    1.20481263442999    1.13534201108285
H          -1.80057474384382   -0.30298968511859    1.46836549455916
H          -0.13587204435989    0.79579181936423    1.92907948893407
O           0.59281392495441    2.28314631233606   -0.56053824151577
H           0.87960990399673    1.76864307920072    0.20549061568951
H           0.87291586703817    1.78510267522477   -1.34907167539990
H          -1.10809851100488    2.23399575289958   -0.45249865113694
N           1.17170089642687   -1.66859371546368    1.10783975146275
H           0.18427747968142   -1.97947815771706    1.04882315218665
H           1.52644205174013   -1.54111511112237    0.08072716360226
H           1.18329188284151   -0.71382027148265    1.53836416784049
H           1.75089141554445   -2.32348347306137    1.62067832016765
