    26
        -50.44974477  Gyration_radius:  2.5534383675 Dipole_moment: 5.640
 S          -1.88999269452884   -1.04521290214403    1.57073606026093
O          -0.61064123555579   -0.38397497626950    1.71670015751199
O          -2.51864937022440   -1.51245766627274    2.74642798332567
O          -2.85139921164872   -0.08544620989330    0.82187536943817
O          -1.70646047156570   -2.23019783078579    0.58644880014001
H          -0.99715143563663   -2.04122647141092   -0.09316293156273
H          -2.36248732647681    0.51765210035417    0.19470969522956
O           0.21755187447733   -1.91419463276170   -1.11828702912590
H           0.42718781921844   -2.78854917332973   -1.45073441724396
O          -1.65088262423984    1.63886645683329   -0.70806898547239
H          -2.25479830073181    2.37917521156448   -0.78784694824192
O           2.24326935741255    1.47225957659420   -0.67202165596638
H           2.73131714365102    2.18127131237798   -1.09220395401934
O           0.35993708271498    0.57484617840600   -2.31169929817646
H           0.28781210062256   -0.36204122780463   -2.06860266745049
H          -0.43618643372614    0.98954228092121   -1.94570635336323
H           1.60139247180249    1.13668896419998   -1.35034748824840
O           0.19036559593215    2.09387778735187    1.01964833522151
H          -0.01045887440590    1.26266262693754    1.48596416591686
H           1.02072669503622    1.92924178847070    0.52937298039809
H          -0.93501786943313    1.91790879435675   -0.04642276875200
N           1.93909682726698   -1.15483850709072    0.65277096240922
H           2.63922313476697   -1.72361457449845    1.10921924950207
H           2.37666559564557   -0.29728893774050    0.32984219818866
H           0.95962285958550   -1.65676137926796   -0.45496094220016
H           1.22995727007371   -0.89818859909230    1.33634949230708
