    26
        -50.44023257  Gyration_radius:  2.54319629438 Dipole_moment: 6.125
 S          -1.94372536077107   -1.44022606068705   -0.69212436483044
O          -1.70217882467439   -0.41875734128403    0.28978588379424
O          -3.29337362333675   -1.70628024056054   -1.03337181576759
O          -1.10714011356858   -1.06091917612104   -1.96319010734726
O          -1.24922497205550   -2.75268987241714   -0.26265393056081
H          -0.26737749732160   -2.55132607085788   -0.23737217465521
H          -1.00302909759361   -0.07517552901608   -1.94908813028811
O           1.26631132235812   -2.18282310424838   -0.33544293416847
H           1.61598023925338   -2.69910482343513   -1.06448070242925
O          -0.86331206326954    1.53730402409804   -1.88698963236954
H          -1.68384824599488    1.85181330620262   -2.27080664921655
O           1.54979302417769    1.46205007689374    1.49068690748721
H           2.27196693042086    1.65128428727654    2.09032089494976
O           1.67701848397331    0.33522972146533   -1.00220404709708
H           1.40775419648828   -1.23032985890277   -0.58983703438215
H           0.95122390662521    0.72699238495696   -1.49872281883048
H           1.70879935353581    0.80289612209901   -0.14615660106846
O          -0.45869867836066    2.89833452400478    0.35373925474095
H           0.17698953796495    2.37171002718418    0.87432784260467
H          -0.02264326066863    3.72911339894083    0.15410277042621
H          -0.81271572321553    1.94962470834737   -0.98612152575311
N           0.33682914447172   -0.73299936935953    2.20923916091301
H           0.82663004672182   -1.54590564064877    1.85378603484012
H           1.09122902000351    0.62609232632935    1.83862484019893
H          -0.48824502388444   -0.60370058359504    1.61863484907793
H           0.01498728872140   -0.94220726665018    3.14531404973178
