    26
        -50.45123055  Gyration_radius:  2.47056101969 Dipole_moment: 4.661
 S           1.91710099326303   -0.19617048574866   -1.42613110137869
O           0.48803546511929   -0.34461057668439   -1.59071838981090
O           2.72827438924126   -0.79907760974127   -2.41725374039170
O           2.25342613836935    1.30043675340379   -1.30063989927668
O           2.28666108950395   -0.71152954632915   -0.00277266081755
H           1.63497888514425   -1.39322975314522    0.33132847418495
H           1.78608334763092    1.60588358895787   -0.46504578835878
O          -2.54489794862263    0.09792091304438    0.69232975927702
H          -3.40277087833132    0.41848419659650    0.97141526709575
O           0.59239342014250   -2.42778314721055    0.92803536239640
H           0.91225160713104   -3.32858111530597    0.85839065461864
O           1.10952674303050    1.98273237493790    0.89616132975232
H           1.81628353701017    2.21392194524547    1.50224340207327
O          -0.18961762913520    0.03886827203355    2.08423574508816
H           0.61688705680740    1.23125986963699    1.33327233040612
H          -1.08622110825393    0.03339301942368    1.69904325469484
H           0.17303491109575   -0.84019823172190    1.92074684259520
O          -1.40084315478909   -2.01964879352464   -0.65110310296522
H          -0.22463358744687   -2.36186385675812    0.33747447353340
H          -1.97352350695995   -1.39062811126139   -0.17843224799536
H          -0.84409941251538   -1.46842623034664   -1.22833467780013
N          -1.31900226224915    1.77866927225994   -0.93172528593687
H          -2.16270212379199    0.78036259163441    0.06037547385355
H          -1.73588409783248    2.29856345415009   -1.69317627689845
H          -0.74211749121120    2.41566361591601   -0.39442933982537
H          -0.68862437234632    1.08558759053653   -1.33528987811030
