    26
        -50.45730954  Gyration_radius:  2.44917197286 Dipole_moment: 7.983
 S          -1.60753188666892   -0.42908456558280    1.75777791408253
O          -0.41879069864029    0.47498549435815    1.84089801701054
O          -2.54459562922767   -0.19946237568235    2.79919046885229
O          -2.13247379045859   -0.41244735300226    0.39919009683851
O          -0.97597337353997   -1.87707404252594    1.92831788663168
H          -0.71536876332977   -2.09617892045291    1.01766351702136
H          -1.95717429041314    0.64755743425172   -0.72760695392918
O           0.15798981798603   -2.34950892579718   -0.49135744686137
H          -0.20661067110624   -3.12659492931122   -0.91600005499065
O          -1.77948293720307    1.28160442250725   -1.47983344070343
H          -2.63144133623863    1.45434194185117   -1.88171381216438
O           2.15095484967175    1.22502768047346   -0.84784133802547
H           2.84816115842492    1.85026981762686   -1.04636322039869
O           0.26036864016251   -0.37271854884603   -2.19312902454194
H           0.10954328957880   -1.61513968598017   -1.17068503627618
H          -0.52161158105343    0.20026037837447   -2.07529728171785
H           1.01611783544845    0.16757036139824   -1.91962779829496
O           0.09804398401363    2.44537659841846    0.11055450025612
H          -0.13596090501946    1.87142080920682    0.86917662579459
H           1.37345715359154    1.77094441532413   -0.49542213585598
H          -0.60848994062682    2.28323833450734   -0.53834178405763
N           1.68024800230216   -0.65700565692279    1.01608781365456
H           2.34377880140627   -0.87475939155367    1.75043544858959
H           1.35919278077081   -1.50743680816688    0.53473389443417
H           0.76734077424421   -0.16903139506038    1.44046964282348
H           2.07030871592299    0.01384492057638    0.31872348183696
