    26
        -50.44023266  Gyration_radius:  2.54313736733 Dipole_moment: 6.123
 S          -1.47186862080087   -0.80009035279809    1.87687525768711
O          -0.28380496894780   -0.00033478077952    1.75470373810772
O          -2.22320964357064   -0.66803915900447    3.07132987734876
O          -2.35863622106904   -0.49875803803601    0.61915246055242
O          -1.12583869601022   -2.28859411759624    1.64406566047183
H          -0.78859116694863   -2.35060956038237    0.70200362792250
H          -2.12736218931114    0.41890173291480    0.32383587042586
O          -0.38105228167057   -2.37838332274589   -0.82509811831742
H          -1.06837912075989   -2.87581803382869   -1.27279209845536
O          -1.72068859771814    1.92292094004599   -0.11792031314956
H          -2.24938093802825    2.47896454256657    0.45723886239087
O           2.11656935559535    0.82680607830866   -1.26295550515202
H           2.91993854522039    0.75284576826104   -1.77871674443165
O          -0.40912489840023    0.01169984216569   -1.93939750960512
H          -0.39796491151425   -1.47053158696048   -1.23430453134548
H          -1.00399611994862    0.63317748286221   -1.50736457628834
H           0.49484176746822    0.34959004328172   -1.79384882617935
O           0.76175032119548    2.85613241925238   -0.06582557993942
H           1.32781158734774    2.12541889726298   -0.37922533967769
H           0.85625011930446    3.56525006274366   -0.70491657069046
H          -0.77964483725604    2.19785360725179    0.03384885449684
N           2.03084975339843   -1.05523441005804    0.54142658053050
H           1.67539515084740   -1.91629111648198    0.14223966968248
H           2.15473362693901    0.10045156811933   -0.55494688101780
H           1.27039635918856   -0.64884099820713    1.09164739395993
H           2.78100662544342   -1.28848751815829    1.17894475067150
