    26
        -50.45283799  Gyration_radius:  2.45266173162 Dipole_moment: 5.082
 S           0.50982483358647    1.96798446948720    0.41877968363157
O          -0.46198988566399    1.50644947859514    1.38448729108869
O           1.76488954518575    2.36238516807099    0.96203149437213
O           0.73966106622705    0.82819932773237   -0.61711981025041
O          -0.10242491129112    3.06954913482218   -0.44252667433658
H          -0.84586787014826    2.64146703804571   -1.00182689448853
H           1.49877462323079    0.28004432362779   -0.21608617807188
O           2.54534779501889   -0.35740705529083    0.69878884806967
H           2.90881340273450    0.46219870328290    1.05392089920753
O          -0.97789724589067   -2.23769477949816    0.33336979842295
H          -1.28738521059481   -3.14294360900060    0.38162477070159
O          -1.97906122716119    1.91843745112250   -1.71003817445681
H          -2.76044077932883    2.47655247296798   -1.69978405843366
O           0.50854693348088   -0.89139456894307    2.23390457782117
H           0.11459219552542   -0.00474068827410    2.18090274588993
H          -0.06973983303829   -1.45948627707005    1.69341172670106
H           1.90058424731313   -0.68713939455993    1.38701976285109
O          -2.39783187462153    0.14221677104581    0.14243900508088
H          -1.82595803892666    0.64140217398250    0.75441271685832
H          -2.18079607480548    1.15057116764463   -1.10201083518380
H          -2.01522827888615   -0.75051551566802    0.11914141804186
N           0.96773109074735   -2.02478802173188   -1.49174649096933
H          -0.27550134649418   -2.20299259716878   -0.37190096638467
H           1.82420520271958   -1.92935761406425   -0.95739628812102
H           1.14757852878697   -2.65059988479569   -2.26689205187755
H           0.74957312229335   -1.10839766435108   -1.86690634613491
