    26
        -50.45781178  Gyration_radius:  2.4347103518 Dipole_moment: 3.655
 S          -0.02083905719722    0.02589252290411   -0.79658817438751
O           0.54237217950765    1.01455175382997   -1.81679063051132
O          -1.47481452733622    0.04754846507465   -0.83227276743778
O           0.51184398177797   -1.29469373280778   -1.17490185830720
O           0.47041145415163    0.39537623754248    0.53405076512528
O           1.78791775643035   -1.39473964358075    1.89099863787071
H           2.52961841426196   -1.43268280679956    1.24747202617466
H           1.29950907851389   -0.58474424703961    1.60258722872026
O          -1.46474072022737    2.13148143788694    1.12928795307092
H          -0.68805205863057    1.54118892492780    1.07906493826068
H          -2.21037057579669    1.56370395858082    0.91807757696291
O           3.07853414280981   -1.08562901976537   -0.42849464211162
H           2.20869570623800   -1.18959671335001   -0.86142249804955
H           3.37478149144607   -0.20041378498746   -0.64563081576208
O          -2.10972307216584   -1.66754661616091    0.98973849787331
H          -2.88519700286019   -2.13886064567788    0.67801856177329
H          -1.91720993525807   -0.96841863501407    0.30624261388259
O           0.14426277847339   -2.84470154701958    0.75343148673180
H          -0.77724336926494   -2.49341343026516    1.00998629349258
H           0.31144321713358   -2.36123780716903   -0.14447875839754
H           0.88296096398268   -2.32196987067825    1.38667004334703
N          -0.75327575745768    3.13939812304400   -1.36852757681084
H          -1.55331508953094    3.22168333897952   -1.98091481987253
H           0.01985733584232    1.93323928421884   -1.67516192903703
H          -0.22605943348323    4.00173401595044   -1.39085344995944
H          -1.08136787137497    2.96285043738875   -0.40958869265625
