    26
        -50.44974529  Gyration_radius:  2.55352125581 Dipole_moment: 5.642
 S          -2.01268703992446   -1.71919726833262   -0.35942561859058
O          -1.73513636032329   -0.53214518900986    0.42103973546558
O          -3.24962736533079   -2.36610702204702   -0.14214669138696
O          -1.88139482767787   -1.35574221072346   -1.86167096544147
O          -0.86027999472880   -2.72978630567685   -0.11907314043488
H           0.00579054062997   -2.26740986536828    0.07359919213354
H          -1.20756924016232   -0.63519078484517   -2.01176482103017
O           1.39531106076598   -1.64635009657227    0.54683752412800
H           1.91308740420735   -2.34003995847052    0.95863580016022
O          -0.27353481979027    0.63201509934849   -2.33099458215677
H          -0.55473803637406    1.00072102687965   -3.17008280828878
O           1.27444930806134    2.31019748537110    0.83113189295461
H           1.73836991939754    3.14121481019817    0.72321238046126
O           2.14402160296160    0.55034925061691   -0.95404270577899
H           1.43047770159498    0.56245476832760   -1.61018043962312
H           1.68359814202092    1.67766674544082    0.18511594232683
H           2.04246177673668   -0.29647663990957   -0.49086523971579
O          -1.16933732640015    1.98928647134956   -0.34676335644823
H          -1.54148619072331    1.18765514926585    0.06273048855713
H          -0.36973430516856    2.20620112031726    0.17337881410892
H          -0.62809629446442    1.24967810110929   -1.60925626702678
N           0.36404738163599   -0.07696422822004    2.32171072837185
H           0.69665236669555    0.86661945582385    2.14794184941403
H           1.05166890600605   -1.03723864142549    1.30043925542248
H           0.32066309365651   -0.22616214295469    3.32064960493944
H          -0.57697740330216   -0.14524910049693    1.93984344747479
