    26
        -50.45123058  Gyration_radius:  2.47043340069 Dipole_moment: 4.657
 S          -0.36443508200240   -1.64760626371994   -1.70234110990470
O          -0.99599160436489   -1.30132511513229   -0.44836846931306
O          -1.13821944239285   -2.42015017895427   -2.60134244462881
O           0.12433612654711   -0.32618907063229   -2.36807403581366
O           0.97364883654397   -2.35002945302026   -1.41151269350131
H           1.53204680870976   -1.66469463132717   -0.93348535115563
H          -0.41974951372550    0.46294065390061   -2.08153898564925
O          -0.30223794769043    1.26555362454404    2.29637427625051
H          -0.15981097747719    1.59237718426444    3.18491626669060
O           2.37150865188229   -0.51492520874259   -0.28121384787653
H           3.09445699303144   -0.32456912262112   -0.88234674484925
O          -1.21184791075030    1.75097885232324   -1.60397756039291
H          -1.85865974838452    2.02798059080123   -2.25465711392779
O           1.11685548823956    1.76958432579018    0.01072575486997
H           0.44780225504080    1.94507570941348   -0.66205556682905
H           0.63506747487155    1.71175748510567    0.85727072257606
H           1.87705373854936    0.34686761795267   -0.17542980816793
O          -2.35222869614565    0.81993216824169    0.50923525173702
H          -2.07244864309094   -0.08234929255856    0.27558405965523
H          -1.77164435729292    1.08089662442658    1.24542265457577
H          -1.72739085640873    1.46453712621789   -0.78373047522373
N           0.48725557298467   -1.23561533831904    2.00212634019943
H          -0.00117183489610    0.30626331353083    2.27970962792580
H           1.45131677799667   -1.25657446081653    1.68999822514292
H           0.35264425239461   -1.99501532551409    2.65719002807408
H          -0.08815636216665   -1.42570178515554    1.18152099953893
