    26
        -50.45123054  Gyration_radius:  2.47097855413 Dipole_moment: 4.667
 S          -1.51403349561778   -1.30171021571457   -1.32865332635079
O          -1.60799091923772   -0.52750034038744   -0.11084864434003
O          -2.73339027426296   -1.57399517740964   -1.99407500660451
O          -0.50394431508600   -0.58124259374839   -2.27174077259259
O          -0.76522994824981   -2.61298495697769   -1.03168026632775
H           0.15322539463598   -2.33016661817876   -0.73739958324978
H          -0.45447547229924    0.40110859962736   -2.08931652238375
O           1.58870262292424   -1.81510765646459   -0.38298757875808
H           2.17646135574903   -2.14038958076630   -1.06782703035073
O          -0.29481320710476    1.95084117891379   -1.79192427540347
H          -0.77962794391733    2.48270443829654   -2.42485215510787
O           0.86466388030262    1.43943949058284    2.03771843582522
H           1.31865231412775    1.71550882479745    2.83408842123139
O           1.89202012622186    0.78959170897536   -0.41501374003506
H           1.68501939812558   -0.82064642838049   -0.39726659169392
H           1.32654147839187    1.24763674344532   -1.04870029012202
H           1.61895227396769    1.10910513072819    0.46555423609327
O          -1.36504217974939    2.07335244011648    0.54748202690662
H          -1.67953624836190    1.15634587749064    0.46307713447583
H          -0.61787616472181    2.02689101370663    1.16942228581574
H          -0.72807143790650    2.10121135448287   -0.89174213034262
N           0.06573678714301   -1.07353941422817    2.14990978796597
H           0.78238873659059   -1.67922197737398    1.76674283475944
H          -0.65180056416598   -0.98135355379715    1.43072078394248
H          -0.35039415016842   -1.54261885230462    2.94407245680579
H           0.57386196267026    0.48674056456852    2.17523951984133
