    26
        -50.46846768  Gyration_radius:  2.39950540279 Dipole_moment: 5.638
 S          -1.55456166853341   -0.71458558972795    0.61991055845447
O          -0.87873477980833    0.26660354707222    1.50342136292960
O          -2.02848777484998   -1.85754517540055    1.35221092570615
O          -2.76879635157301    0.02957586456569   -0.01328390267703
O          -0.64969198295751   -1.08388409972833   -0.46266612034842
H           0.19597019967279   -3.27469416900541    0.08111477317830
H          -2.38515912957773    0.71341926733805   -0.61330225167115
O           0.25025166242795   -3.17078108050224    1.03596552535037
H          -0.64232483263980   -2.83340840694581    1.28242584702453
O          -1.65247626822433    1.96391181346167   -1.46419116799659
H          -2.28347018433863    2.68418066999597   -1.51197693312577
O           2.30688358048312    0.73927215801473   -0.59444599111097
H           3.15798200962889    0.79652225007985   -1.03035633625173
O           0.46520075117968    0.29011365660683   -2.37226032311341
H           0.01246494718122   -0.34382716546045   -1.77049706758600
H          -0.17346436665149    1.00573212005492   -2.47236221337816
H           1.63562797395223    0.57189073954685   -1.32226778330021
O           0.16824742143775    2.40209920938751    0.35507314789070
H          -0.24459342302280    1.70712022728017    0.91299482751967
H           1.01846728400419    2.03619420239972    0.07488504794180
H          -0.95282605867990    2.24381730506226   -0.80913695508576
N           1.44026604620665   -0.83935088557179    1.45471112859949
H           1.12851276532487   -1.83342676928927    1.24401057813667
H           1.89334221862723   -0.38066558293183    0.63579044541013
H           0.51068539272417   -0.32047243682014    1.60531860933373
H           2.03068454800954   -0.79781167948712    2.27891427816266
