    26
        -50.45002626  Gyration_radius:  2.51533436149 Dipole_moment: 6.071
 S          -2.01191737653606   -0.43297086790866    1.55155163061250
O          -0.64885400716805    0.24548574344863    1.86815978934923
O          -2.96760458937144   -0.15504439386903    2.55810643981671
O          -2.37238005771406   -0.10065343669176    0.19315392578617
O          -1.62471605634484   -1.93145210945205    1.60424724362793
H          -0.98652130882601   -2.05555215504018    0.85166985353082
H          -2.00016718812709    0.84333501073442   -1.06172930179877
O           0.19751737550507   -2.15030568746122   -0.23632339555912
H           0.45847629416879   -3.06280457265412   -0.37399373509022
O          -1.65113743094292    1.46775784828825   -1.74137377117924
H          -2.41660178795141    1.85713928525133   -2.16588503206298
O           2.18987946585244    1.20558910531226   -0.86568542532462
H           2.67656503541878    1.78413512056784   -1.45393537603473
O           0.47390551986802   -0.23181703306991   -2.24695288245334
H           0.25082049248946   -0.96429976169372   -1.65000835391059
H          -0.30345188245820    0.34986672621305   -2.25238417804834
H           1.61953235395074    0.63221492960862   -1.44658496162875
O          -0.03103675913029    2.17287008052143    0.34855931472419
H          -0.45313781554823    1.06312114455301    1.27604501310097
H           0.85042151623107    1.90413700585236    0.01113676873397
H          -0.62780347117312    2.11600324925901   -0.41984830412170
N           1.98111547846242   -0.89862694647866    1.19032198748787
H           2.34849447000559   -0.15190803503826    0.60752784132078
H           0.94281196886738   -1.70466675174225    0.30128459094154
H           2.75113950622548   -1.32760120755393    1.68623045063118
H           1.35465025424472   -0.47395230095733    1.86670988754646
