    26
        -50.45730950  Gyration_radius:  2.44926663325 Dipole_moment: 7.986
 S          -1.61636448314187    0.30514654254206    1.77640860999616
O          -1.37631937142642   -0.94924475839040    0.99787141487940
O          -2.84668163949116    0.28406911391671    2.48433720038964
O          -0.41301189034831    0.32549777213302    2.81369663685901
O          -1.38350671349316    1.45811740190931    0.91722899414558
H          -1.38541683216227    1.56645647139542   -0.63572434370893
H           0.29466659103114    0.74970344956425    2.29929515047006
O           1.11418079544555   -1.53349728758205   -1.80375331059647
H           1.30693719730350   -2.16674397282500   -2.49531814306796
O          -1.30332420427470    1.62417186533287   -1.63040676944915
H          -1.80425592513268    2.39845390755286   -1.88855199673683
O           1.70241710402431    1.09503873673883    1.29884640814948
H           2.09675786190699    1.90750907814708    1.61746161292836
O          -1.41779940513186   -1.09513834608966   -1.67015714543603
H           0.11046409191020   -1.39428243961258   -1.81952130786980
H          -1.57446415109814   -1.13864610291645   -0.70396746381962
H          -1.51447284769410   -0.15128918681226   -1.88543157994760
O           1.36576770017267    1.22461249748765   -1.28630982903022
H           1.44039726252098    0.31340981944447   -1.60561544545226
H           0.44695947412903    1.49144152252693   -1.48224073338974
H           1.53943822199882    1.23210469084323    0.32011898136695
N           1.07685059105049   -1.53030944778251    0.88591051792671
H           1.33073233137582   -2.34332665106005    1.43499300458649
H           1.25541892484556   -1.67089841770145   -0.13243340446653
H          -0.01619228658107   -1.31400296874441    0.98320730916389
H           1.57082161225613   -0.68835330001964    1.21005560210608
