    26
        -50.45123059  Gyration_radius:  2.47053394923 Dipole_moment: 4.661
 S          -1.91493455126815   -0.12862825232419   -1.43640365936955
O          -1.67516341286710    0.26842105751609   -0.06659445277540
O          -3.11811012309221    0.33362873346738   -2.02159091035500
O          -0.67569612789748    0.29975539083076   -2.27824659879173
O          -1.82950106593017   -1.66217022196155   -1.53478520030414
H          -0.88452867872784   -1.88951192957831   -1.27890521812342
H          -0.19929616975547    1.08147223828390   -1.87471425437681
O           0.62503329361987    2.27702901088711   -1.23755154765169
H           0.43253246719723    3.10849234980426   -1.67351830427032
O           1.38418551174882    0.34327120810237    2.22058106232764
H           1.90805523228516    0.17406006849366    3.00385537223097
O           0.62607069551216   -2.15488081044627   -0.96347673197710
H           1.01711114338308   -2.51191308630888   -1.76338672153811
O           2.05222432423474   -0.02555594135043   -0.40711569369509
H           1.15330887648224   -1.33301298379271   -0.75126619300557
H           1.75815763884965    0.77798673083504   -0.85307902903695
H           1.93482588921332    0.14090156022161    0.54730023512965
O          -0.31194890679153    2.24072825894560    1.16123954675826
H           0.32797256873160    1.71797140798730    1.67517419480222
H           0.29133441324553    2.36140133134085   -0.28777818586356
H          -0.99928251374319    1.60563823683224    0.89426826334038
N          -0.44883561927338   -1.51158094520586    1.81424642359345
H          -0.07006192079108   -2.24479284212147    1.22588509058935
H          -1.04183032659031   -0.93611622583001    1.21608526604139
H          -1.03993805677317   -1.94322121101778    2.51296005831021
H           0.69831541899056   -0.38937315360908    2.15681719801151
