    26
        -50.44023260  Gyration_radius:  2.54318186135 Dipole_moment: 6.127
 S          -1.85135305622299   -0.64023287378831    1.57918423077471
O          -0.70823508084152    0.23043473656599    1.61277988041039
O          -2.87773255333505   -0.40081556691286    2.52673469715236
O          -2.41601584195253   -0.59913990758956    0.11677284709004
O          -1.38972376712169   -2.11232512847346    1.67613926638735
H          -0.82779893706209   -2.28103498211870    0.86321410843364
H          -2.15918567728216    0.28067688234399   -0.26096597565714
O          -0.05470317560709   -2.49557249857097   -0.49864264507524
H          -0.58558007205679   -3.10894850544388   -1.01071784735574
O          -1.72412938702658    1.73215480873382   -0.83335942525586
H          -2.40489156479958    2.32027377878814   -0.50155184523598
O           2.32214691495213    0.80984651482483   -0.84095686193878
H           3.23013342163433    0.72875237223306   -1.13397240637678
O           0.08297610286159   -0.30341070494088   -1.95785357650332
H          -0.01174301164795   -1.66135812347697   -1.04101758333414
H          -0.62835898548477    0.32185422577962   -1.78505229400411
H           0.90610301672473    0.12673948164996   -1.65784271711512
O           0.62087387357804    2.87014281182442   -0.34051753214747
H           1.27980375640960    2.15184835528714   -0.38829499445043
H           0.83860205361807    3.48463256197054   -1.04416053799070
H          -0.86475869047822    2.10498719440514   -0.50690006998808
N           1.88070122751105   -0.79120001040439    1.17094743774785
H           2.45971017036322   -0.86449298773648    1.99735711278538
H           1.67563039178594   -1.72825619264215    0.84390172756066
H           0.98962413324396   -0.37478537833196    1.45169277544142
H           2.21790475824601    0.19922912602344   -0.03691777135271
