    26
        -50.44974518  Gyration_radius:  2.55351459052 Dipole_moment: 5.640
 S          -1.97028531429051   -1.38915532687911   -1.14967580182580
O          -1.70971799619109   -0.72747675877828    0.11112982962850
O          -3.18580935945011   -2.09842536811017   -1.27313454649733
O          -1.87561088566089   -0.33344212788127   -2.28220058706703
O          -0.78767881254178   -2.35110340708304   -1.43824034190234
H           0.06892817294998   -2.01454068241939   -1.04607626695073
H          -1.22651819109413    0.39163562013360   -2.06131834460513
O           1.44969883127402   -1.65795055683541   -0.33359648317488
H           1.99459666215048   -2.44639209890423   -0.31523420293996
O          -0.33587216674661    1.68418969048605   -1.72098050713654
H          -0.64307129078484    2.40694726662748   -2.27085061568631
O           1.22608122192954    1.65011618813141    1.85114494057776
H           1.66451208207078    2.44339661453490    2.16089686531509
O           2.10857321350856    1.01601066387863   -0.56970341716044
H           2.03861657432042    0.04803431833546   -0.58012383800119
H           1.38259829676618    1.32456327809136   -1.13324332194166
H           1.63968090578616    1.42742490327727    0.97701880246024
O          -1.23105919094727    1.86440666148079    0.67670248700094
H          -1.57241712994317    0.95280591477132    0.64167511593755
H          -0.42762885659842    1.82583704102976    1.23341551028787
H          -0.69365151999387    1.85660271622831   -0.78816796511717
N           0.41111463652842   -1.19047377741569    1.98594988138810
H           0.39089316504149   -1.81047212126207    2.78418710763930
H           1.10430109633125   -1.50626547955871    0.62268512828341
H          -0.53478861090102   -1.09422446048132    1.62262794572921
H           0.71451444648822   -0.27204873139841    2.29511263576008
