    26
        -50.45730963  Gyration_radius:  2.44903954102 Dipole_moment: 7.983
 S          -2.18897522501890   -1.03054677284001    0.05352130101101
O          -1.64611082837479   -0.04656513780574    1.04052560575098
O          -3.59860899200587   -1.17403308200421    0.14098441538652
O          -1.64897637404665   -0.73766463860357   -1.26717544377174
O          -1.49373056294566   -2.39427849991332    0.47985750653026
H          -0.64651914919858   -2.35034189456874    0.00498044442418
H          -1.04236115092231    0.58064174790295   -1.83128688523102
O           1.03771821264416   -2.12129809747776   -0.45918296868832
H           1.26445489606431   -2.80533960477620   -1.08999437035738
O          -0.57628249918801    1.39688690585816   -2.17171807047340
H          -0.94456726073679    1.56418525401254   -3.03975089530970
O           1.75516010599924    1.63426907002582    1.04520128165379
H           2.21488570378578    2.36449627512987    1.45979075285653
O           1.74544809958182    0.21344839772358   -1.38739243585481
H           1.27175992138728   -1.25202028941408   -0.89827117185283
H           0.97528214584489    0.64671271882794   -1.80311502481109
H           1.95179044305970    0.75203081389162   -0.60940705139774
O          -0.63039859842908    2.33615648005663    0.38288357801746
H          -0.64701738455668    2.26096531895702   -0.58693512896597
H          -1.15465658731856    1.56861599416612    0.69283326054723
H           0.83734822717505    1.98329047720696    0.79493580589260
N           0.66000922498868   -0.69220597184015    1.83624827939077
H           0.68788489300412   -1.00822394272755    2.79868834440290
H           0.97454134800046   -1.42767967536472    1.18957473539743
H          -0.38565313324784   -0.43205101121524    1.53611519686788
H           1.22757451445453    0.17054916479192    1.68808892858319
