    26
        -50.45730955  Gyration_radius:  2.44910829961 Dipole_moment: 7.989
 S          -0.85543510128280   -1.55086801030260    1.64943112493991
O          -0.06589020935080   -0.30972529021386    1.92063028104506
O          -0.89978179899089   -2.42711729575391    2.76549089032727
O          -2.31554504969378   -0.99672411502412    1.35761277151603
O          -0.42132620993181   -2.13233796242735    0.38646336713713
H           0.91227905383209   -1.94766928986776   -0.39557238210331
H          -2.27005771836497   -0.78593926035619    0.40954810087415
O          -2.10952679142150    0.00463135776676   -1.15558763465767
H          -2.71336141764835   -0.42273568899474   -1.76386945247263
O           1.72954411846457   -1.76769912728859   -0.94245393117568
H           2.04489579806794   -2.62527875284122   -1.22930487479247
O           1.32986910715302    2.17631192501309   -0.58158029577266
H           1.95670894779629    2.89811518303538   -0.63122039910057
O           0.27057709461837    0.14278880318676   -2.21830992954397
H           0.81649822632367   -0.59985177474940   -1.89568404488093
H          -1.20783388942440   -0.03236323966905   -1.59009146973064
H           0.67672768081496    0.93877278048486   -1.84508250258698
O           2.30032434267702    0.23900096746341    0.80640211541092
H           1.78057615661594    1.44679340849466   -0.04155822666810
H           1.53948213823642    0.00616808249185    1.37813043214803
H           2.36438108259260   -0.50270806867571    0.18018630037721
N          -0.99263815573272    1.68482394305507    0.68376027585353
H          -0.16400397742911    2.08002059083710    0.18800163903647
H          -0.61299282855337    0.81989238825254    1.28325887443213
H          -1.44070389280623    2.36721630519961    1.28415857283392
H          -1.65276671659086    1.29648216092427   -0.00275961247903
