    26
        -50.45212783  Gyration_radius:  2.45279663539 Dipole_moment: 5.975
 S          -1.56409035829615   -1.59732281692559    0.54272299398179
O          -0.15421781625846   -1.67502276914129    0.86704996075508
O          -2.45026232390515   -2.00627867771301    1.57099314948901
O          -1.87050185151430   -0.13863574850617    0.09873730636514
O          -1.82555275407911   -2.35342418399859   -0.76440675793327
H          -1.28914362487487   -1.84475192214633   -1.45147484663631
H          -1.67842414014433    0.50221751881447    0.85923573750473
O          -1.24658447994961    1.41242299483860    2.02493300420198
H          -1.75222716208871    1.15765176809574    2.79955696876258
O          -0.34867331439965   -1.03050662664805   -2.39126793052221
H          -0.27125985687110   -1.49710741241213   -3.22613247163553
O           2.32100524065188    1.14344899988649   -0.06727541728642
H           2.99469762351750    1.80685446140351   -0.21807907000349
O           1.07576502344101    0.29390168013721    2.24119974609866
H           0.73980715363914   -0.55554819965691    1.90338110006099
H           1.66135287868716    0.62958284723393    1.53950371845364
H          -0.30836241259402    1.08681417879189    2.18450282129470
O           1.78274876790447   -1.39383094200305   -0.97499232542511
H           2.15887503535465   -0.53937952528016   -0.69969877414765
H           1.23307484926367   -1.67942189431395   -0.22272996393265
H           0.53746150794493   -1.13947813157612   -1.92578410168751
N          -0.03436988496744    1.94190423188051   -0.99906360169497
H          -0.13745757621024    2.63974515151088   -1.72542665492073
H           1.46404898668057    1.49519071065931   -0.44950875231844
H          -0.56082100541923    2.25277185914510   -0.19027082419063
H          -0.47688849550954    1.08820245792145   -1.32570499463495
