    26
        -50.44877573  Gyration_radius:  2.46869584321 Dipole_moment: 6.604
 S           0.23159640415978   -2.14944718953210   -0.48358173415174
O           0.74845045520268   -1.00049810217885   -1.19003161512517
O           0.96916164853067   -3.35144682995051   -0.57571063436380
O           0.03351521586751   -1.72343932574742    1.01232041399987
O          -1.22766833589490   -2.38318674172356   -0.91032915373363
H          -1.73632867538472   -1.51541511234495   -0.89383801959504
H           0.94944239336321   -1.60782537471856    1.44322773946650
O           2.28253121262150   -1.16270311193147    2.02916187450231
H           2.21320868032335   -0.72140190201606    2.87870829708491
O          -2.63015520362588   -0.22368838673948   -0.72024889269422
H          -3.51698394268727   -0.52868486973898   -0.51803180574451
O           0.29822730662137    2.34416042315262    0.47769223394362
H           0.26059182998337    3.29834060232458    0.54968135539601
O          -1.48406539272826    0.55347472720675    1.48618553389404
H          -0.96585333284963   -0.26160038150348    1.55919730243377
H          -2.26434838885599    0.15924832172170    0.12948178697674
H          -0.84757341660742    1.25596447228200    1.24797980206664
O           2.44681017046544    0.62949435437838    0.15780520352051
H           1.80381714371947    1.33084373043569    0.36143497673981
H           2.52016519308500   -0.46148183566697    1.35671453832969
H           1.99971663972283    0.06364735411333   -0.49613233023284
N          -0.45776196909313    1.50480621071727   -1.89803026142967
H           0.02040484727291    0.60548417907761   -1.84605503092514
H          -1.44968501843484    1.29806801971824   -1.92358649237449
H           0.00555685097486    2.10681213825769   -0.45895672296639
H          -0.20277230571333    1.94047463039215   -2.77505837501961
