    26
        -50.45619396  Gyration_radius:  2.48611369477 Dipole_moment: 9.341
 S          -1.51977554208787    0.91373446964438    1.19892503175149
O          -0.50129495928341    1.74323176821773    0.51360470383801
O          -1.91752840531608    1.46207797652759    2.45032373961646
O          -2.76861734247899    0.91315869405298    0.22699646908136
O          -1.06607423011947   -0.47953337367285    1.24864917918475
H           0.08135786348965   -0.02533188647793    2.41156724191411
H          -2.52475638856736    0.41027220041009   -0.57438164147133
O          -2.03265738669309   -0.49394980811374   -2.00202118704989
H          -2.82388027704044   -0.89991231396175   -2.35867273167728
O           2.02329434997783   -1.00155995008753   -1.02846089928285
H           2.84707984397885   -1.26272598749804   -1.44253259357883
O           0.75146337949197    0.49087770383968    2.89745626623080
H           0.29173755411030    1.30429904535860    3.12241302009273
O           2.77226838873395    0.03065545638911    1.24987645622936
H           2.26834696092288   -0.62719817629355   -0.13547140738575
H           2.01393593308092    0.34563801774076    1.79927772177506
H           3.25982282435879   -0.55922875333114    1.82831230670780
O          -0.55198975832126   -2.15065946432897   -0.68952156484148
H          -1.51156198029009   -1.22868471730302   -1.55179488497041
H           0.38776617822965   -1.97486729415667   -0.83643271418492
H          -0.76440557234330   -1.67379215323144    0.14584698726983
N           0.27227300981402    0.95348686427973   -1.73533000364774
H          -0.05168531004440    1.32625032619613   -0.71103931825699
H           0.63410359788492    1.72256791943661   -2.28670464270141
H           0.99448624511879    0.22162264614054   -1.57711118564527
H          -0.56370900667384    0.53957081020376   -2.16377434897618
