    26
        -50.44877584  Gyration_radius:  2.46866431847 Dipole_moment: 6.606
 S           1.63788218702048   -1.04710207178915   -1.06283456072521
O           0.50305636447406   -0.34381110062425   -1.61409012593786
O           2.81591020562533   -1.08676542084034   -1.84265732832988
O           1.91988452566099   -0.43450457620840    0.35269351753022
O           1.20355563245976   -2.47142637146986   -0.67699910666270
H           0.33680082856137   -2.44305479457633   -0.16711006272627
H           2.29267640715615    0.50610132482539    0.23343974904633
O          -0.92431177276514   -2.45261269542896    0.78516458208401
H          -0.83794145766522   -3.22481141901749    1.34789675037111
O           2.58572616838020    1.99395105780296    0.09735333174655
H           2.59272013512897    2.47410238417865    0.92856521355380
O          -1.64583337504244    1.55688814486984    0.82223931971397
H          -2.42021268787200    2.01775719831028    1.14632023022517
O           0.26870677396337    2.29586272793034   -1.03456491382080
H          -0.41141331103773    2.20780294453880   -0.34437222518114
H           1.75803264940428    2.27113118115767   -0.39100898496832
H           0.30546487480933    1.42168432696277   -1.46138295426071
O          -0.20787365194594   -0.34283073911667    2.13494674188582
H          -0.71697401790641    0.41215166204902    1.77954535337527
H           0.65940532630511   -0.30450805708990    1.70537862317729
H          -0.74049203926768   -1.65896769253964    1.36718574365736
N          -2.27325397453208   -0.33905909040005   -0.88998345650618
H          -2.96931802662213   -0.25438831780735   -1.61961484140092
H          -1.96951802456141    0.85902931334570    0.16833116267110
H          -2.40540891214945   -1.23144225105100   -0.42796830249909
H          -1.35727080757030   -0.38117763801897   -1.33647346603205
