    26
        -50.45122967  Gyration_radius:  2.47833874227 Dipole_moment: 5.272
 S          -1.94654086939073   -0.19105571996858    1.45738680300632
O          -0.57704515262169    0.44543111212939    1.82064015296262
O          -2.93232377319041    0.14627088907291    2.41529787897349
O          -2.23798884606419    0.11819639894403    0.07582270955158
O          -1.61319369595424   -1.69724348096890    1.55347139275094
H          -1.09514852721814   -1.90969688311968    0.72488628205848
H          -1.81422122905715    1.12416266788835   -1.11475503382856
O          -0.30124198579196   -2.24649340242156   -0.60510741799149
H          -0.88908626674897   -2.77901339926862   -1.14393203064862
O          -1.40841201344857    1.73841304739286   -1.77212370019518
H          -2.13376381142601    2.18936505023062   -2.20602110813808
O           2.37213821339676    0.79648665227760   -0.45987298255993
H           3.30324841164142    1.01941663068468   -0.45644820319049
O           0.46700875434222   -0.27213015728978   -2.14924692392974
H          -0.02905996037267   -1.47856289653548   -1.18470057679415
H          -0.20140002325131    0.42926764406721   -2.19391429024254
H           1.23466027312363    0.12092221336422   -1.70257837310626
O           0.24893503065535    2.29530895143268    0.31171294548153
H          -0.30529338393866    1.24626275486813    1.23313554392120
H           1.09320322392611    1.88748230229422    0.02989281985819
H          -0.32253326349252    2.29240609076390   -0.47834742589996
N           1.84057930155390   -1.15034444065563    1.24819707623244
H           1.41415900932627   -1.89730524437633    0.71052665327800
H           2.24307244251793    0.05066073511920    0.20245470879741
H           1.09629364814973   -0.71214085514043    1.78397980209158
H           2.49395449333457   -1.56606664077270    1.89964328756286
