    26
        -50.44023261  Gyration_radius:  2.54305210011 Dipole_moment: 6.122
 S          -2.06052072471961   -1.05985847401622    0.98104482893894
O          -1.09486614018969   -0.08124768282258    1.40034274797811
O          -3.30503912195503   -1.07521641963767    1.65900241875920
O          -2.26360529781218   -0.87136191741089   -0.56243344450038
O          -1.42862326381474   -2.46994823997030    1.02541448680664
H          -0.67438533961073   -2.45728509070855    0.36486870549451
H          -2.05436488652198    0.07707864845229   -0.76089111951236
O           0.41756034541935   -2.38788423602260   -0.77525189554539
H           0.11291942019554   -2.97574168431681   -1.46944080340670
O          -1.70951667759463    1.63567662376637   -1.03481855545601
H          -2.52475200008878    2.08945505259249   -0.81378201612622
O           2.31761713773621    1.16956691368674   -0.13513372600424
H           3.27125410620065    1.22898675505548   -0.19787333581459
O           0.58168760724303   -0.00665686113918   -1.89609016957052
H           0.46775725139309   -1.48465247894535   -1.19194665739470
H          -0.23124949673982    0.50560261628955   -1.83699655546745
H           1.24289761716049    0.46260795084942   -1.35273508176302
O           0.27468358710185    2.93985380839835    0.14807158548039
H          -1.00971492393442    2.04906132385330   -0.46600724591515
H           1.02124196262381    2.31248003972896    0.18711805810417
H           0.56100649813566    3.66733084129201   -0.40778538266038
N           1.64294189606976   -0.73974516906694    1.50942416764091
H           2.01622052137904   -0.86681355921903    2.44112823494113
H           1.65438885435778   -1.63715738182765    1.03865695404549
H           0.66139105010047   -0.46740832247920    1.60230958352545
H           2.11307000786806    0.44327694361380    0.54380424741825
