    26
        -50.46708060  Gyration_radius:  2.46825397182 Dipole_moment: 4.694
 S          -0.17978480963193    0.98812509567261   -0.56879814826105
O          -0.29970168868592   -0.46392983361621    0.04699850884617
O           1.20309559017461    1.39689679087964   -0.33248149987093
O          -0.45262226332001    0.77704838328850   -1.98367518649861
O          -1.13964190357026    1.83301020197856    0.09966768658880
O           2.65734063511727   -0.73045975735135   -0.63646152050385
H           2.53608860165554   -1.19738849956309    0.19329954724074
H           2.22910083875175    0.15414784036297   -0.50897787805396
O           0.75597322402796    2.34018640505409    2.09707754417077
H          -0.04232426158077    2.83569919711023    1.89205177152296
H           1.10860397981221    2.09081169419985    1.21941169956163
O          -0.85870188282361   -2.80577988984761   -1.23369326981706
H          -1.79536164365180   -2.85549864429624   -1.43230449420174
H          -0.75346361025084   -2.07153599443556   -0.60136533246181
O          -2.69706592263760    0.84891363700623    2.00240498427312
H          -3.24972286654978    1.55735172159927    2.33526757826640
H          -2.21895532841048    1.21652976135520    1.22754744748103
O          -0.22168656397760   -0.09133251508884    2.53376131987032
H          -1.17227551109398    0.10353511717354    2.63958129528450
H          -0.24373124980685   -0.36690716924836    1.07288056713229
H           0.22970577585545    0.78713206574910    2.56892882298002
N           0.93492494127437   -1.29096841072576   -2.55894570798853
H           0.31735283198381   -2.07401786090724   -2.26348652800773
H           0.35271098271069   -0.38484613028485   -2.43001014286774
H           1.73211770033916   -1.20010572360079   -1.86791318777890
H           1.26802440432029   -1.39661751246927   -3.51076586691588
