    26
        -50.45730956  Gyration_radius:  2.4492287549 Dipole_moment: 7.985
 S          -1.71966236806755   -1.09526125767370    1.30531308192006
O          -1.01356093360829    0.17660749070751    1.65300177825090
O          -2.90387644734686   -1.29001817984373    2.06360855495479
O          -1.85433346289415   -1.19257537544071   -0.14176839323576
O          -0.65976784093175   -2.21561019782387    1.68790217868096
H          -0.11654265887535   -2.26789740254407    0.88327945013758
H          -1.80572607621738   -0.07848575623958   -1.22815564268813
O           1.13687544337637   -2.09186667706568   -0.34184507083770
H           1.20294112024906   -2.92221841179851   -0.81444928596637
O          -1.69239166517934    0.61942083780381   -1.93494932745452
H          -2.41520578954024    0.48764229767383   -2.54924137418275
O           1.67927187643627    1.98088627921982   -0.31801282125077
H           2.11986985026105    2.82992697497567   -0.35573416265431
O           0.92439126577418   -0.11877480655799   -2.03751896379783
H           0.99293290297406   -1.38776478052243   -1.03948317623952
H          -0.01703541201817    0.11712890076944   -2.14613286205466
H           1.33001926695731    0.64503620617439   -1.60170398490628
O          -0.84986845183222    2.29766199053486    0.03575811015823
H          -1.03615552757878    1.63286892972540    0.73095578799449
H           0.69286421118548    2.17909649134414   -0.19732463035951
H          -1.25713256786496    1.92562874397379   -0.76562898558833
N           1.49036317408008   -0.05003139891712    1.43611739587805
H           1.64029726297684   -0.92866426596592    0.92282616331000
H           0.38674493273146    0.04046028875288    1.59432650011156
H           1.98002580990375   -0.05097686924664    2.32335706775047
H           1.76466208504889    0.75777993798359    0.83550263206964
