    26
        -50.45730960  Gyration_radius:  2.44916101255 Dipole_moment: 7.985
 S          -1.40398642090261   -0.53237863626988    1.89869172081731
O          -0.10308656633851    0.20490644731342    1.93356077880588
O          -2.15520098237579   -0.37535085606430    3.09301390106658
O          -2.09679642228175   -0.22997137118818    0.65360942782444
O          -0.95785347275437   -2.05040141626884    1.75345794040517
H          -0.85205002463510   -2.14186846392023    0.79133509160234
H          -1.92960616158355    0.97553337739425   -0.31722782972373
O          -0.22875121482627   -2.23673359021227   -0.85362453035735
H          -0.74971704779123   -2.88539919189740   -1.32798711816321
O          -1.76870706053575    1.70145213475088   -0.98551637467538
H          -2.63522281793553    2.03110849682411   -1.22558579617675
O           2.16557540822233    1.10013543000625   -0.97273151782169
H           2.90860076316468    1.66730498622165   -1.17927126605394
O          -0.08381041957325   -0.02890272470148   -2.23833258109219
H          -0.26585769662222   -1.39875716290210   -1.40106864087491
H          -0.75848758746176    0.60091783282219   -1.91903117788098
H           0.76750741260298    0.36981292546171   -2.00560679159655
O           0.44155630562693    2.36583421314308    0.45845365394615
H           0.23387060724219    1.70253015661086    1.14897689333499
H           1.52256375371277    1.66325474828543   -0.42846516583787
H          -0.35945200975771    2.39546419449075   -0.09281225883039
N           1.69528142109192   -1.00215363125046    0.63887163922710
H           2.41464809032773   -1.41284619784842    1.22262333112596
H           1.20098902854098   -1.71864127792480    0.09084831205002
H           0.92134783414142   -0.49243914131744    1.26559592077746
H           2.07664528070340   -0.27241127155482   -0.00177756189604
