    26
        -50.45212789  Gyration_radius:  2.45275865961 Dipole_moment: 5.973
 S          -0.71689675470266   -0.12205361864665    2.18156645978420
O           0.30356318511411   -0.96870772628706    1.59773478085496
O          -0.44068726103812    0.35351263854883    3.48825574741597
O          -0.96807932237434    1.06253458718937    1.20559695263510
O          -2.06970593751646   -0.83868045403755    2.11346476607179
H          -2.24027926129991   -0.94421949740921    1.12425294329238
H          -0.12090711065564    1.60721416638768    1.09797714549346
O          -2.33829593375684   -1.12599008920491   -0.42069854224830
H          -3.06489494097974   -1.72244421770738   -0.61295462955379
O           1.23942523757921    2.30298207371920    0.90093096837599
H           1.54444833725879    2.59934475837751    1.76099567919990
O           1.43211577693229   -0.57189540528680   -2.07839560508362
H           1.80418422959205   -0.51854515924162   -2.95898109308543
O           2.47192498778453    0.08709667005145    0.38858387671694
H           2.28370633113702   -0.18145630429806   -0.52817065344378
H           1.82046571731659    1.52029492791881    0.65308265101149
H           1.85093628745156   -0.42803956217254    0.93404517691212
O          -0.08632337905773   -2.37148945811478   -0.66110382683942
H           0.50653976972134   -1.89184827486713   -1.26583831459296
H           0.17198041820556   -2.07465110227795    0.23044703578864
H          -1.49454154247664   -1.64082868676816   -0.61259862050637
N          -0.46311157305269    1.25555993732433   -1.72793154316709
H           0.71916907192691    0.12910443848747   -2.01206009096535
H          -0.97924388340361    1.67481223181804   -2.49149675030191
H          -1.13345737915469    0.80582305920196   -1.11177087159737
H          -0.03203507054325    2.00257004730651   -1.19493365215625
