    26
        -50.44945177  Gyration_radius:  2.47469275817 Dipole_moment: 4.993
 S          -0.82583818181541    0.66038618195394   -2.17699122756831
O          -1.34674703186456    0.79586484015415   -0.83429302090267
O          -1.22022069097196    1.66016618503427   -3.10013932169402
O           0.72541330734195    0.55947009773590   -2.08249271562859
O          -1.16815479951775   -0.74164755275004   -2.71295063675763
H          -0.71048920774587   -1.35163002012555   -2.06532048555459
H           1.11653399831045    1.18263468967913   -1.40035209655173
O           1.76169744806569    2.04375230724434   -0.25499556530593
H           1.95615262173317    2.93196550022505   -0.55776745946702
O          -0.01548057228579   -2.15461493891874   -0.89399080737644
H          -0.01653228121169   -3.10429616568233   -1.02762970913995
O           0.42329629018409   -0.22506614443495    2.65049544211728
H           0.97598729188112   -0.13542679774990    3.42779969237133
O           1.96405509775367   -0.74331450327799    0.54557571763913
H           1.02750617386266   -0.48189648683280    1.90959467868887
H           1.40957554693885   -1.19628316463805   -0.10863291031895
H           2.17071863453815    0.12348313926717    0.17781901566299
O          -0.28575127613468    2.04682923710751    1.30086743390188
H          -0.85963446311409    1.70142464583405    0.59355240968620
H          -0.13345942206548    1.29160678633794    1.90286110668789
H           1.01117530313450    2.12504979987435    0.41766804598904
N          -1.67773073303863   -1.42520862693047    0.95072520622421
H          -2.54105267834319   -1.87859953742131    1.21799879708939
H          -0.66669431387981   -1.95517360243264   -0.12744130727833
H          -1.90100524848914   -0.56422645846600    0.45536918405031
H          -1.17332083330230   -1.16524941078735    1.79267052339917
