    26
        -50.45730951  Gyration_radius:  2.44931475212 Dipole_moment: 7.990
 S          -1.44638949986505   -0.54997586880078    1.86201427917262
O          -0.13167249422323    0.15920292733620    1.93722799711062
O          -2.21448470731926   -0.40785914242248    3.04741805512525
O          -2.11162313616308   -0.20224764846374    0.61375802533561
O          -1.02852243184739   -2.07283421825615    1.68560081323255
H          -0.90868671078049   -2.14307165238178    0.72340553220333
H          -1.90429398136513    1.02296136061411   -0.32405361905540
O          -0.25793039241949   -2.21007249712646   -0.91325958799869
H          -0.78041323907400   -2.83774778230643   -1.41344702181068
O          -1.71737780228296    1.76145328268767   -0.97146681282963
H          -2.57287500315169    2.11401890257079   -1.21859245969997
O           2.20289653780708    1.07938872424092   -0.90970608413718
H           2.96039131716236    1.63632747433244   -1.08972121304910
O          -0.04714282133298    0.02799407747738   -2.23978415830359
H          -0.26993043939532   -1.35834302960278   -1.44013098173925
H          -0.71418351641012    0.66338119186634   -1.91542132530244
H           0.80806768012982    0.40329077582494   -1.98358442642250
O           0.48087104828356    2.34381892761803    0.52499690469572
H           1.56218903434878    1.64165747353699   -0.36195151947782
H          -0.31007101716987    2.40339243431843   -0.03825826128815
H           0.24842649888316    1.66821169155018    1.19538229971280
N           1.66366961048213   -1.05158678919904    0.64159066403276
H           2.36484503177058   -1.49135719158051    1.22627363635824
H           1.16412594510850   -1.74381406117670    0.06766901225169
H           0.88982165537473   -0.54200242624031    1.26835789521553
H           2.07029283344093   -0.31418692641921    0.02568235666226
