    26
        -50.46708056  Gyration_radius:  2.46931505088 Dipole_moment: 4.693
 S           0.84278520224066   -0.40824349315110   -0.67190326097855
O           0.74194777839240    0.07637955454812   -2.02721520029267
O           0.33451170681760   -1.76903403108578   -0.51288541412723
O           2.16140983429327   -0.24488002720599   -0.07563616660804
O          -0.08408662898154    0.49530789417221    0.23698221578851
O          -1.50461813143903   -1.55289051567682   -2.40077499680039
H          -0.87095878923933   -1.83904234503392   -1.71266092796800
H          -0.94837739089370   -1.14469043006846   -3.07068123842242
O          -0.38846074776212   -1.99895249414937    1.96832998160039
H          -0.13986171538841   -2.05431607245281    1.01048965942968
H          -1.24200459555349   -1.56042546901268    1.98806103763037
O           0.60590749920070    1.97603521443876    2.42028308872127
H           0.19920301967945    1.59895741385507    1.61868557754512
H           1.04177755019838    2.78418311775664    2.14430230460738
O          -0.81052326098705    2.14154832813928   -2.60783583361490
H          -0.14121458130134    1.45056381086690   -2.41095025170019
H          -0.75902071191936    2.30191965145920   -3.55109692723618
O          -2.28053235395354    0.55881255772964   -0.98732809089997
H          -1.01293112856366    0.52982232675771   -0.21201237698016
H          -2.04379996795864    1.28839060190685   -1.59111901748072
H          -2.20558670512877   -0.26361414992003   -1.53015596367166
N           1.72101344946634   -0.47831006326604    2.43111643371441
H           1.41405164373685    0.47743939807416    2.70336079105929
H           2.46885276725917   -0.82868113252551    3.01936563309848
H           0.88137338540171   -1.12346121288928    2.43117740872951
H           2.01914286239961   -0.41281843326815    1.39010152484300
