    26
        -50.45730961  Gyration_radius:  2.44917487113 Dipole_moment: 7.983
 S          -2.24034004072210    0.70095398755986    0.58973426859076
O          -1.61674021587460    0.76843675031430   -0.76817619208820
O          -3.65278846812655    0.83847583413866    0.55159903554511
O          -1.72181941785410   -0.45909679461701    1.30177425741339
O          -1.61004651316331    1.95056467804564    1.34189651677774
H          -0.77446604818414    1.58645282842511    1.68021040104580
H          -1.05885618595440   -1.75758013538824    0.75476598509364
O          -0.55775483670433   -2.55314191495366    0.41528805434540
H          -0.93939161409977   -3.31057312478643    0.86005798160676
O           0.90579157938360    1.11902638213842    1.92675597931261
H           1.07604217021762    1.12276493337559    2.86920231108655
O           1.87085808312770   -0.31044384951716   -1.80273698034775
H           2.38017875255547   -0.49196318140394   -2.59272549759928
O           1.71593133847808   -1.13421338394468    0.88719552801086
H           0.95972693596657   -1.74676637053703    0.80599341367486
H           1.97340518621946   -0.92465593745082   -0.02252436934518
H           1.17540474210848    0.21105925076264    1.60113414526098
O          -0.48995764180563   -1.31384336561588   -2.00773451905549
H          -0.53727013521928   -1.97570931017613   -1.29631731867502
H          -1.04689285204109   -0.57463171267459   -1.68628772781562
H           0.96701444930218   -0.74669119535009   -1.94264154812489
N           0.67138800301699    1.82995997258483   -0.69919316128760
H          -0.36647998480183    1.41510071039358   -0.74769647401294
H           0.92731579602850    1.85959718152023    0.29656740725376
H           1.28126429670087    1.14537288601518   -1.19714031679258
H           0.70848262143388    2.75154488113615   -1.11900116987190
