    26
        -50.46788073  Gyration_radius:  2.39858983013 Dipole_moment: 5.647
 S          -1.75494427123422    0.08034437152722    0.41718316891662
O          -1.08266832245862    1.39850072187906    0.33464906189609
O          -3.05531379022569    0.09855562054316   -0.19629957749695
O          -0.88397524317931   -0.93825710064931   -0.15904923114825
O          -1.91195242025744   -0.23950149000325    1.93571425798307
H          -1.00047802189762   -0.37491439313863    2.28958522979934
H          -1.81508634600876   -1.45652781692809   -2.35667235927111
O           0.56509602433130   -0.70955732202487    2.80427005707880
H           0.51052542232455   -1.29746842897875    3.55949449050260
O          -2.08783831234538   -0.55991539478080   -2.57257018955443
H          -2.61474659917395   -0.28099120325808   -1.78747445803128
O           2.32373082349021    0.26739133697822   -0.84989841143010
H           3.19201642379528    0.61892162921134   -1.05079585343719
O           1.37131891039940   -1.96007446200610    0.66298022598011
H           1.97017243076851   -1.41481021887088    0.13582694514606
H           0.93916965542475   -1.25115522362165    2.04897184592975
H           0.48537028640135   -1.75396711996931    0.29069002309289
O           1.38629855905195    1.47116627708809    1.26995991243746
H           2.02042539196298    0.73409510803312   -0.01746576881780
H           0.45044377151235    1.58134446766115    0.99144485827080
H           1.33980778688367    0.87920413250352    2.03153663544141
N          -0.04805454284614    1.03194321148716   -1.99079060471204
H          -0.46881146035096    1.33318566377645   -1.04792180639947
H           0.06454906782786    1.81879426969643   -2.62162906691389
H           0.86561525528189    0.58958596235588   -1.76311606221095
H          -0.76067044946496    0.33410739147667   -2.35862331304290
