    26
        -50.45004741  Gyration_radius:  2.53814615247 Dipole_moment: 6.005
 S          -2.37406327565023   -1.09907049616984   -0.14492490190039
O          -1.51244361069596   -0.46419917635312    0.82834917949550
O          -3.63904638291449   -1.54806692049247    0.29630865822658
O          -2.55276103097667   -0.12773329642682   -1.34133788769318
O          -1.60033176613623   -2.29592029917290   -0.75996148966285
H          -0.62407099093876   -2.09307888317961   -0.81959798631879
H          -1.83803966080518    0.56976533375209   -1.38275605696591
O           0.96389738475373   -1.91254955314497   -0.81534528930232
H           1.37863438492678   -2.75961344355540   -0.98607899727808
O          -0.76617622564264    1.72638979910537   -1.61548670618185
H          -0.88179098503514    2.07417072536732   -2.50119431870124
O           1.96562369927065    1.55386399431976    1.15254782612895
H           2.44554104264105    2.36336335999055    1.33087718037647
O           1.59764435426571    0.70258030450573   -1.41120600607825
H           1.44939517396117   -0.25435122513402   -1.34310922156387
H           0.16366175725033    1.33852250158948   -1.57874342112293
H           1.86760322400712    0.98969649234152   -0.51518608588736
O          -0.62484997185046    2.06637485371075    1.15167754970810
H          -1.01770404144791    1.17765212780050    1.21745557614006
H           1.00072459742553    1.77921063987462    1.23686581784765
H          -0.78642304787384    2.32713449032276    0.23562323480350
N           1.12581259264869   -1.23414173982252    1.66554513139032
H           1.35709461273678   -1.82430507655789    2.45323123601893
H           1.09726479229933   -1.70208015292304    0.18443601660353
H           0.14200445730719   -0.97879573110584    1.72745672416650
H           1.66279893646995   -0.37481862864111    1.73455424775239
