    26
        -50.45730951  Gyration_radius:  2.44919685345 Dipole_moment: 7.995
 S          -1.11432506540993   -1.84759924274136    1.09751572520843
O          -0.66199654155185   -0.57419365786324    1.73877040464878
O          -2.03985788977237   -2.56632674319539    1.89881212713019
O          -1.51890790216509   -1.57915567999380   -0.27575104577749
O           0.22902003346689   -2.68567796936695    0.96582687072849
H           0.59266818359132   -2.36073271549308    0.12475529511881
H          -1.95492615924498   -0.24466788814320   -0.94859699271505
O           1.49259328593195   -1.51110153042027   -1.12867663778956
H           1.65446263623814   -2.12566418877595   -1.84506715493918
O          -2.15395762581197    0.62213223155866   -1.40527611239182
H          -2.93837443432666    0.46520186750941   -1.93182635846662
O           1.07661743820917    2.38163797542728    0.11428821629137
H           1.29238144311770    3.29757205604799    0.29015850685011
O           0.48356205336218    0.70437631914238   -2.06977285671139
H           1.04780239806468   -0.71483572080114   -1.54273132093478
H          -0.48841758587513    0.68656700395316   -1.97696684345670
H           0.78436160808235    1.40272347154949   -1.46999185131014
O          -1.32779659544528    1.86447746121864    0.87163515797596
H          -1.79658745380736    1.62666055432891    0.05299678911924
H          -1.20844493751431    1.01083689680430    1.33741270717983
H           0.11812071483969    2.25350791403616    0.41697687733549
N           1.72622544048598   -0.01756746473817    1.14399382047380
H           1.96486614615592   -0.64376634040060    0.36358296762759
H           1.67730646176040    0.96639228756395    0.80083138809257
H           0.68840130460620   -0.28848189122937    1.46186844319020
H           2.37520305299768   -0.12231501598902    1.91523189752178
