    26
        -50.45004758  Gyration_radius:  2.53812336458 Dipole_moment: 6.005
 S          -1.56896376070150    1.20260195364020    1.71986699462200
O          -0.41303521436557    0.33281968030155    1.70616525455559
O          -2.07376902874917    1.59935343297727    2.97851473744849
O          -1.24145028594947    2.45838127798257    0.87003640028201
O          -2.70120044504962    0.50554414538542    0.91890525198377
H          -2.32419697551207   -0.03375102226317    0.16722238857759
H          -0.48360996036012    2.30903371101049    0.23575769081921
O           2.29257645186243   -1.30853678828274   -0.79639591260289
H           3.18913554862690   -1.37392262563403   -1.12706453433594
O           0.68159290547951    2.23404047461256   -0.84960421739903
H           0.59659244538987    2.98469116622086   -1.43957832370602
O          -1.80313644665635   -1.03555450670991   -0.96314712816879
H          -2.52704911879510   -1.59615727614539   -1.24663137103347
O           0.40046558058291    0.05417440598840   -2.20829106205922
H          -0.44910861068477   -0.31386613641009   -1.91662490868014
H           0.56576829833013    1.40858712044181   -1.41677777963655
H           1.08504154441385   -0.52251617299880   -1.81198225724489
O           2.15372316772738    0.67663741067364    0.93935597064370
H           1.30738183974988    0.50655608374565    1.39032552480005
H           2.30616992147356   -0.60313059200584   -0.09557312837874
H           1.96934849377415    1.43715429927149    0.37290461966329
N          -0.14495922087597   -2.28820995187457    0.56083696590962
H          -0.28800110147514   -3.16854711141658    1.03702317326747
H          -1.17475995453289   -1.61444192477498   -0.38711765272715
H          -0.11822325400399   -1.54315156921657    1.25440203494045
H           0.76366717016471   -2.30778951445916    0.10747125839224
