    26
        -50.46452142  Gyration_radius:  2.52844138758 Dipole_moment: 7.097
 S           0.33738811461333    0.36541772474638   -0.62339797058193
O          -0.52242289359069    1.54733257955794   -0.52863306124402
O           1.62189682737735    0.60376733387115    0.01126392430316
O          -0.34450215806684   -0.72829229369221    0.29487100519305
O           0.41566792368417   -0.17246646588032   -1.95943886677183
O          -2.25146638921960    0.72397411116674   -2.35518957059473
H          -1.63570406482224    0.46210248900167   -3.04600401516150
H          -1.69812362354437    1.18569102884095   -1.69395638132537
O          -0.53860917332861   -2.54544889447659   -2.64522158616358
H          -0.11779669442635   -1.67071388351174   -2.49652653382415
H           0.13549105663404   -3.19964314334396   -2.45779996533741
O           2.78193840121023   -0.51405177015964    2.05712115412253
H           2.44591079755738   -0.21338031512508    1.17711019242461
H           3.65726038040750   -0.13501420507283    2.14964568087778
O           0.50757701405843    2.71113468561466    1.51639051678136
H           0.01932788177039    2.39644904607075    0.70732619013087
H           1.41694542034777    2.78961668210521    1.21486533786120
O          -2.35279354477828   -1.51781525316121   -0.95975483843979
H          -2.55438309264878   -0.70132080198238   -1.48180409240760
H          -1.90321004212948   -2.11082963719733   -1.59712270055127
H          -1.21074040850809   -1.07131454466290   -0.18614244571853
N           0.34290350266944    0.35425482357514    2.62036353265096
H           1.32364513286631   -0.00867337246402    2.69849285259574
H          -0.19778604907645    0.22078199622582    3.46839987416414
H           0.39368020963789    1.38472773021937    2.30944089184334
H          -0.07209454869625   -0.15628563026572    1.80570085517074
