    26
        -50.46788068  Gyration_radius:  2.39853136139 Dipole_moment: 5.648
 S          -0.11628440823459   -1.04035826230621    1.47073625976945
O          -0.64116822473220   -1.66738999684417    0.23485312970732
O           0.65665593084738   -1.96273097288071    2.25768467081161
O           0.63950866612985    0.15612932923936    1.11652654042914
O          -1.35942713814100   -0.58421558440984    2.29513613469548
H          -1.78614856673942    0.14274913235417    1.78163832044164
H           2.99548131132524   -0.44635186740001    1.33392652392940
O           2.90867780352907   -1.34652461833811    1.00657307834515
H           2.17694752811253   -1.72260326705864    1.54960178265737
O           0.29000710325676    1.02910968971712   -2.24690634098691
H           0.19825948255622    1.24093749757259   -3.17672218666337
O          -2.39645405979959    1.45164441894255    0.91962933060159
H          -2.86039169449011    2.02232957963713    1.53447196980493
O          -0.11271566791117    2.47418124218326    0.18572605874125
H           0.06753763994163    2.31258394826822   -0.74974224468914
H          -1.56908183634766    1.94431392697241    0.64336044632445
H           0.29989722734920    1.70380256027373    0.63552117235920
O          -1.93526585244655   -0.03900941071284   -1.39304858642449
H          -0.59253315468612    0.65404442593228   -1.95860185070397
H          -1.56500358066438   -0.74658328651988   -0.82054207647143
H          -2.40474427215325    0.54133928521455   -0.78036534203740
N           1.44517413832313   -1.22552092192781   -1.20209302446520
H           0.54307311709532   -1.52316940919077   -0.69769472540783
H           2.15938223477337   -1.19251750211941   -0.41553586660317
H           1.71141019085387   -1.89021580377276   -1.92120306014301
H           1.24720609224684   -0.28597411282451   -1.60293012402560
