    26
        -50.46846775  Gyration_radius:  2.3996346657 Dipole_moment: 5.638
 S          -1.33653682918630   -1.23308984269872    0.07292959636430
O          -1.44905009205910   -0.08040103958728    0.99956859283704
O          -1.65572339508068   -2.47564963958756    0.72218299480094
O          -2.35963612838450   -0.97495199047771   -1.07407414194285
O          -0.00331654023973   -1.24114558197931   -0.51847091986846
H           1.22583062162878   -2.98187199459989    0.61111279037554
H          -2.01624233846393   -0.19550366693478   -1.57355092036328
O           0.84823868917997   -2.87171520647597    1.48900811948894
H          -0.12358368073755   -2.88210083209604    1.32506476390807
O          -1.46327184450185    1.24042887974400   -2.24891281269666
H          -2.22050037981421    1.68326158532940   -2.63590156462014
O           1.95761328223102    1.52971374920850    0.23726938984097
H           2.84048985394138    1.89274691655002    0.15741844948021
O           1.26719674925499    0.45762591460871   -2.02739857644885
H           0.84718668045825   -0.30124042688132   -1.56178744266610
H           0.52761833968855    0.89382390081128   -2.46635883675574
H           1.73975129020612    1.13631802221690   -0.66043826395149
O          -0.80373640478293    2.29621191510973    0.04628027847005
H          -1.22892777955832    1.75030173012571   -1.42312714119826
H          -1.14986638123983    1.49487447277114    0.49670986546413
H           0.15504145485879    2.26668076761570    0.16879598208825
N           0.91104004598349   -0.27127208840483    1.99859419064000
H           1.47700603839301    0.32705006214078    1.35978396722205
H           1.06372485712325   -1.30903093961505    1.82640809204092
H           1.06312464860271   -0.02581327880739    2.97133230211561
H          -0.11347076756234   -0.12525139807994    1.70756124535779
