    26
        -50.44788582  Gyration_radius:  2.44257521368 Dipole_moment: 2.480
 S           0.20741537305585   -1.75183093667497   -0.46779366170099
O           1.29218379749644   -0.96518533728034   -0.98126193074579
O           0.55707387750311   -2.97424468024693    0.17421719552061
O          -0.62358439612146   -0.85993272867618    0.50161639517606
O          -0.82127674595128   -2.03254693216982   -1.58092177428853
H          -1.09577211326799   -1.14168067438811   -1.96447552708735
H           0.02338183424746   -0.15728652795793    0.89483954896193
O          -0.93282310481343    2.53418327413644    0.83644088643395
H          -1.22025228414165    3.43069061677326    0.65835416944112
O          -1.42583229572065    0.31854516433284   -2.44936373795022
H          -1.31529091077090    0.36814775651188   -3.40056401243302
O           1.11008424507846    0.67199029076625    1.45968975747691
H           0.78729036814974    1.17128016220522    2.21359772234904
O           0.49228869002181    1.59211264629641   -1.33027722131684
H           1.02867802148387    0.80269517446575   -1.13758529675865
H          -0.68177366376851    0.88552859562140   -2.04794545493968
H           0.18831591448121    1.93577276565022   -0.46645621980652
O          -2.80444633460584    0.78757228866456   -0.03326123537334
H          -2.64929046578442    0.73632275733956   -0.98562700545489
H          -2.34295828012764    0.02245468721493    0.33365853210077
H          -1.68943666459295    1.95275490190031    0.60254952317053
N           2.43963229612077   -1.56248607206396    1.90228732495517
H           1.80339928966472   -2.17525589431481    1.39382676673768
H           1.70737106362450   -0.07043851106396    1.76352808726545
H           2.68589909721756   -2.02216054771033    2.77110617888434
H           3.27972339153269   -1.49700221931345    1.33982096937705
