    26
        -50.45577747  Gyration_radius:  2.44048191878 Dipole_moment: 4.629
 S          -1.56014502405469   -1.31160440049701    0.11480326285649
O          -0.14677199498572   -1.74401209133181   -0.33045020573767
O          -2.01805146892587   -2.27418303519227    1.05725517111323
O          -1.32537920522793    0.04715372570748    0.82983811596064
O          -2.36452269178221   -1.03092075663318   -1.04124206487955
H          -1.93666064114840    0.30803729725203   -1.87035126021246
H          -0.91127608534104   -0.24388542024929    1.74266463881602
O           1.87268914828684    1.54518470621058   -0.16739213717446
H           2.49759459507513    2.24619797749394   -0.35822983595132
O          -1.54295624888315    1.06052512865597   -2.37704780439256
H          -2.06142025051086    1.13831266445521   -3.17973290130601
O          -0.28520270913292   -0.99277352240714    2.82453447601240
H          -0.73360209377570   -1.82554399703556    2.62540655171128
O           0.85606602954960   -0.14549762929951   -2.00242524019208
H           0.07887934927125    0.36095397214299   -2.30866196033724
H           1.35113828870049    0.44885801982064   -1.39812964368212
H           0.25435764404084   -1.13379414928191   -1.06155636542616
O          -0.59213371114952    2.50207710381205   -0.19740807644710
H          -0.94677603459670    2.26816922052238   -1.06924076999148
H          -0.99921842692645    1.86345745077611    0.40412148780709
H           0.98431502276195    1.98004088661806   -0.08993178447568
N           2.03013855036556   -1.01024042851306    1.54216383268954
H           2.93890958517224   -1.22333546207930    1.93254613757400
H           2.08207052601663   -0.09669432624300    1.10039779329405
H           1.82613029739224   -1.68381791655189    0.81263235859459
H           0.65182753985188   -1.05266501816389    2.46543624378464
