    26
        -50.45002643  Gyration_radius:  2.51348414702 Dipole_moment: 6.052
 S          -2.17176554712098   -1.24362948896582    0.58816709350718
O          -1.28562633436945   -0.32909815475117    1.48103382124698
O          -3.45481877842106   -1.42621928019930    1.15768000565160
O          -2.11933673824212   -0.73631453481391   -0.76297238591609
O          -1.38425340933333   -2.57558373831053    0.64302507811451
H          -0.52213580671499   -2.37607458372157    0.18896602848382
H          -1.67420620095807    0.52748539817321   -1.66173327190513
O           0.92645874582473   -1.93623603001652   -0.35919918472082
H           1.49148143290050   -2.70156986780940   -0.48011777223318
O          -1.33431471951983    1.35396788908696   -2.08018319142319
H          -1.99295965965741    1.61984223997025   -2.72307406702028
O           1.86011086579116    1.86968043289314    0.18137359941294
H           2.31267797909017    2.66180052792326   -0.11077623716673
O           1.25055712952999    0.37511302045263   -1.89543825832383
H           1.07530867172469   -0.49911831817924   -1.51131508049333
H           0.38298785491746    0.73393473975293   -2.14230551454592
H           1.72838024618535    1.30771165612844   -0.63000423771640
O          -0.82456054287802    1.97285181778494    0.53537807190963
H          -1.16698935513553    0.61976245896342    1.10254601676577
H           0.15601630257844    2.01064012409972    0.53931791642647
H          -1.07577942447633    1.93602988797455   -0.40563105717520
N           1.63413637529720   -0.60719764914630    1.76609890464445
H           2.28126169046940   -0.92352286063619    2.47606757223102
H           1.26663429882611   -1.44160216883396    0.46696460882478
H           0.71518007086552   -0.50636429638139    2.18523337056093
H           1.92555487291332    0.31371078850928    1.45089815086676
