    26
        -50.45212784  Gyration_radius:  2.45273129749 Dipole_moment: 5.977
 S          -0.96002157598299    1.08117088634875   -1.78911894868016
O          -0.75673085986942    1.66750126292375   -0.47998368198117
O          -0.66432735273561    1.92585890628098   -2.88864946925120
O          -0.12354024424706   -0.22810616841983   -1.85916752356099
O          -2.38172174872564    0.51547508058600   -1.87554633626562
H          -2.39930140691705   -0.20788525279353   -1.17197709977693
H           0.86089250408733   -0.01600575397634   -1.75007675633775
O           2.31961371993712    0.38297620924953   -1.45599783609890
H           2.58955837622087    1.01991791156563   -2.12083299550939
O          -2.32261923624260   -1.22818198161511    0.00421184367239
H          -3.20772934147320   -1.54878377900848    0.19004928750626
O           0.94042846585287   -0.28267578147752    2.39386057876703
H           1.38542683418031   -0.67115313584224    3.14734376148231
O           1.68703355443099    1.72777346918274    0.66125128319379
H           2.20752370052195    0.90180777203417   -0.60160176665215
H           0.80186279140877    1.93435013043177    0.31144349897380
H           1.52869716825320    1.11128018321608    1.39802342759870
O          -1.61990987314004    0.50764515736932    1.78565813085405
H          -2.07572426385137   -0.62550935989159    0.77212899478802
H          -0.76834794521005    0.25914892708751    2.18627304474621
H          -1.38948786019806    1.13806163807528    1.07918305241867
N           0.87272294996167   -1.97322358424841    0.34670691100089
H          -0.01258776800097   -1.77694576164695   -0.11041914202464
H           1.60275645904320   -1.66871832476563   -0.28752792913327
H           0.93602731368127   -0.96842033508131    1.66312720084227
H           0.94950562901779   -2.97735832558240    0.45163845943002
