    26
        -50.45212781  Gyration_radius:  2.45279460456 Dipole_moment: 5.977
 S          -0.15659315964938    2.29091140618233    0.14940391898112
O           0.79105628039904    1.57776547787090   -0.68270597157667
O          -0.76413639655854    3.42298869902397   -0.44995310530894
O          -1.23315791867885    1.27352548199223    0.62337831177053
O           0.50766489504398    2.64489226161610    1.48436768046869
H           0.71689457896457    1.74816141088021    1.89745252653162
H          -1.72578578017209    0.89300246172402   -0.17553636983573
O          -2.33785418996919    0.27869380403760   -1.44929869440366
H          -2.72091117952834    0.99144291759246   -1.96477064179408
O           1.06769971511776    0.30776536235585    2.37988066243753
H           1.65067083202768    0.37291833662302    3.13919742901047
O           0.86370201129777   -2.28303002681047   -0.86006057958309
H           0.92466819028197   -3.22802713272884   -1.00137601368518
O           2.42623621176102   -0.32803588999261    0.27507607104467
H           1.63633546890039   -0.02229815823907    1.61723957473956
H           2.04375094191022   -1.11397348925410   -0.15307776260720
H           2.04040227559549    0.42937637694860   -0.20149730928209
O          -0.02964702122529   -0.24806766453918   -2.49113427118443
H           0.33425321633335   -1.05035666957611   -2.07646494751870
H          -1.50853139885744   -0.00739887408154   -1.94136518896554
H           0.39373699193167    0.49226765633214   -2.02082782212829
N          -1.06658836417150   -1.69674802175261    0.86722624881987
H           0.13148183215912   -2.12707473194738   -0.19386622002411
H          -1.85025432978285   -1.37859847609385    0.30814631874236
H          -1.41864504849263   -2.35416626461991    1.55209493594645
H          -0.71644864465474   -0.88593627353740    1.36847120940951
