    26
        -50.45123048  Gyration_radius:  2.47101112912 Dipole_moment: 4.664
 S           0.76658029385669   -0.44566825366045   -2.22888513400886
O          -0.42081053373805   -0.75176938474044   -1.46223554891393
O           0.99491195952229   -1.24274040266651   -3.37616373274310
O           0.74428340833303    1.04478461921906   -2.61210296392513
O           1.98351677065771   -0.49214385869254   -1.25681581566239
H           1.81783424748969   -1.09467283325126   -0.47554637786181
H           0.76811334328334    1.54151189242507   -1.73880608037347
O           1.57585292137395   -1.98850837328953    0.81195008980220
H           2.00930985373902   -2.83986601126470    0.73593858888792
O           0.90413193431849    2.24193582627145   -0.34475489888925
H           1.74830587966363    2.69762654525461   -0.34529777795178
O          -1.65343716725812    0.08317469399327    2.05685965725664
H          -2.25732796923443    0.39536800551377    2.73093653793544
O          -0.98619989400985   -2.23106711444258    0.71679496027873
H          -1.00189057251760   -1.82865056783167   -0.16907908466575
H           0.58184174294890   -2.16802685413873    0.83576113849526
H          -1.32740682306695   -1.54137629455298    1.31259523030465
O           1.00726804184260    0.63179752024761    1.72253134033923
H           0.93911963244285    1.61377793741355    0.43151073849867
H           0.08246633431215    0.43967222733182    1.96748017529664
H           1.41446408880226   -0.22359431207666    1.53879047926446
N          -1.99632900871917    1.31339936018117   -0.25292939469271
H          -2.87829165646161    1.55176580470804   -0.68791330479870
H          -1.55557612821590    0.58767414371926   -0.81829151894346
H          -1.39147203294517    2.12515837064822   -0.30231700230045
H          -1.86925864642443    0.58043729368783    1.20998970936408
