    26
        -50.45454419  Gyration_radius:  2.42325006448 Dipole_moment: 8.706
 S          -0.44883398241576    1.95381937426390    1.28339389024055
O          -0.03837482353903    1.64894075509182   -0.11996934190367
O          -1.58677381868916    2.81732932053979    1.30531229809575
O          -0.91102452853124    0.54022360657507    1.87105600921981
O           0.70208828274861    2.29768937863566    2.07443463988969
H           1.38594745366680    0.85723568566243    1.85105521780484
H          -1.67954915841441    0.22427880788576    1.38352220676967
O           0.97305387741691   -1.22102137272381   -2.12721974629213
H           1.48713687262357   -1.55395706768685   -2.86303371582747
O          -2.32680855221712   -1.24168559748478    0.31657893549951
H          -2.90362640068617   -1.85678525261901    0.77006408202035
O           1.80430816050293   -0.03391067233448    1.73437252836000
H           2.04868576598909   -0.31404759339373    2.61809139968000
O           0.18868052955477   -1.91604317268356    0.50514618940707
H           0.53963093724774   -1.86473744065141   -0.39508856467749
H           0.67150549585544   -1.23665493532636    1.01782532743523
H          -1.39265823458224   -1.57279431076865    0.45906751466790
O           2.27614188511241    0.61992920117495   -0.87777395935675
H           1.54162168442253   -0.51337461259235   -1.68189596207415
H           1.51292769746523    1.19620156341183   -0.65749789722507
H           2.53751149115915    0.27552513711551   -0.01109965429756
N          -1.30405255180931    0.17178287987227   -1.72541276332378
H          -0.52567497081477   -0.42449220457983   -2.07890164460482
H          -0.81976451548102    0.89038856784276   -1.03041917983108
H          -1.78882520225551    0.65526577765210   -2.47198545813851
H          -1.94327340433243   -0.39910581287912   -1.14962232153773
