    26
        -50.45025689  Gyration_radius:  2.4748856904 Dipole_moment: 4.749
 S          -0.30797542694858    0.03582592262354   -2.40333293231817
O           0.73559375014428    0.42754178215405   -1.48232059092176
O           0.11475929835440   -0.35948634173304   -3.69558854351765
O          -1.15079245803626   -1.08028755008866   -1.72097924147264
O          -1.34763831309185    1.16920443359133   -2.50205865513997
H          -1.68344642294906    1.28065458376142   -1.56866705782350
H          -0.61880313145507   -1.62809889753583   -1.06676224548684
O          -2.17557727384115    1.32065175274778   -0.05477629863113
H          -3.13165305520145    1.24800668078922   -0.05007787244858
O           0.91100441554169    0.80380119804657    2.43008009526767
H           0.83227762964206    1.31254593006730    3.23795725062883
O           0.13837768692776   -2.48850542061828    0.00077049371699
H           0.39422693754333   -3.33018993427564   -0.37890605403752
O           0.42233896045379    2.36384732857633    0.35214994635374
H          -0.53921339224148    2.42746852142502    0.31647821642434
H           0.81284308957000    1.44999394944510    1.68296265886053
H           0.65728662263047    1.75016208583424   -0.36996207278250
O          -1.27171759503516   -0.55314297124975    1.51875342004789
H          -0.95967128840983   -1.35278583718649    1.07829294547282
H          -0.48129956385208   -0.15224703416606    1.93433598888567
H          -1.84177504587961    0.56723677264851    0.51776371552145
N           2.21586453345898   -1.02894014668877    0.48542380902115
H           3.18874802705615   -1.30231592646350    0.45239340964041
H           1.00136646199380   -1.97744984156195    0.21966815762091
H           2.05341161452681   -0.51795633080115    1.34769549989685
H           2.03146396909764   -0.38553472934198   -0.28129405278046
