    26
        -50.45730954  Gyration_radius:  2.44915269532 Dipole_moment: 7.980
 S          -1.38818624574567   -0.60823260548076    1.88704768422140
O          -0.21404736247805    0.31830283193107    1.90795201512959
O          -2.20399382929540   -0.48506706748207    3.04233348100549
O          -2.06509815154254   -0.50023243709194    0.60186585398230
O          -0.71533334749343   -2.04741474756418    1.86893251936845
H          -0.55483489157983   -2.18716820047175    0.92023018323878
H          -2.03920998100119    0.64804231932752   -0.44946288112643
O           0.14293005438127   -2.29910863841883   -0.69240167923971
H          -0.25876514808573   -3.04878436944849   -1.13252430838357
O          -1.96001221197539    1.34259656038018   -1.16404811903169
H          -2.85496403266821    1.52030330495130   -1.45501554138977
O           2.01769276261828    1.34661265917374   -0.98245742963700
H           2.67727686463505    2.00407518051812   -1.20396089631035
O           0.01594012558107   -0.19415539833880   -2.23086338217392
H           0.00487925145366   -1.51545714354972   -1.30071129864003
H          -0.75779931347100    0.34660063276872   -1.98046566748525
H           0.78791515141748    0.34401536105762   -2.00246756176053
O           0.06438710127421    2.43085071061149    0.29495587395282
H          -0.07121966862423    1.79243706184189    1.02568297181700
H           1.27510508636527    1.84153723211665   -0.50259218402101
H          -0.70817117661111    2.30109096997638   -0.28187413903744
N           1.79771717131509   -0.68760334898019    0.76432317327976
H           2.54484161648236   -0.94270068170006    1.39968688634323
H           1.44024523932428   -1.50696658503917    0.25576814338394
H           0.93015650990276   -0.25962402955783    1.32648949462750
H           2.09254844582786    0.04605043842052    0.08357681786253
