    26
        -50.45090891  Gyration_radius:  2.47179561572 Dipole_moment: 5.660
 S          -1.48547054168300   -0.83565017201451   -1.33950305665652
O          -1.31016311938626   -1.64783525079484   -0.16068862558883
O          -2.75252663691365   -0.20657720201866   -1.48845366679919
O          -0.38819908470548    0.29091593308471   -1.31130590567215
O          -1.08178470776485   -1.64150587764542   -2.56825636333244
H          -0.35139158029049   -2.29594302084342   -2.24475549743452
H          -0.80710005745561    1.01586644704009   -0.73208257840738
O          -1.69913732673704    1.80166207956612    0.24010129432366
H          -2.54678973509827    1.57608265711717   -0.15992553428314
O           0.62246066652184   -3.09902963905079   -1.41248271878119
H           0.04614296584254   -3.18030608112543   -0.64177996733307
O           1.51422772622045    0.19253606890384    1.90054633196462
H           2.09705940355582    0.30400775463158    2.65264823511355
O           1.97112727569707   -0.96538179742588   -0.58101983936560
H           1.29920008438393   -0.39725275281107   -0.98183682430315
H           1.91702121991327   -0.77634723240126    0.37045523922438
H           1.30747039951105   -2.43674684776291   -1.14939950490351
O          -1.23199490816440   -0.04585905438501    2.00051335672747
H          -1.38200739627588   -0.77433062410851    1.37240663872490
H          -0.26650469740513   -0.02607616862608    2.12892114088183
H          -1.60306328928594    1.19980972373712    1.03822531907175
N           1.23605630297598    2.50725750424813    0.56898307770812
H           1.67570588329435    3.36063781585179    0.89075920568146
H           0.23291763559442    2.65920111939893    0.55305446903977
H           1.53091395063179    2.34564025202014   -0.38645731989365
H           1.45582956704049    1.07522436541216    1.44133307430716
