    26
        -50.45406678  Gyration_radius:  2.48466209562 Dipole_moment: 2.031
 S          -0.94549288123400   -0.25145434033402   -0.41265651160611
O          -0.82323651976439    0.44268990933291    0.86637699035644
O          -0.91415366663937   -1.70176200589708   -0.23860332843614
O          -2.29679970656319    0.11255109182148   -1.04286059517130
O           0.12923567821891    0.16330350687546   -1.32427898507153
O           0.27769926560807    2.78116471985904   -1.81049615796753
H           0.61846297728398    2.85147071594028   -2.70349216965452
H           0.29621502080482    1.82490597964956   -1.59605896402839
O           1.59300250403104   -1.93913167568748   -1.29969503352590
H           1.15329928731702   -1.05206768796970   -1.42475271006602
H           0.83825785691281   -2.54008134017602   -1.28482174209966
O           0.00194666069519   -2.65649458919800    1.94978058359004
H          -0.22821985441636   -3.58732692583952    1.93662971719936
H          -0.47959496662468   -2.24028863669924    1.17707573452100
O           1.61375263896879    0.61229244943279    1.60001410437294
H           0.66528152460098    0.61257887230110    1.26556405169500
H           1.55978703842009    0.82496205447526    2.53428113959972
O           2.22538754468502   -1.77370204316481    1.12048290250426
H           2.08484082492331   -0.75614925302577    1.32887213676822
H           1.40023120677208   -2.22029516360247    1.54529373461091
H           2.06961518629167   -1.86230454996900    0.07466036404642
N          -2.20817670274348    2.58443262867022   -0.44797790596456
H          -1.41796936078820    2.93732368270793   -0.98747757277241
H          -2.37028316003559    1.13326139375932   -0.87345719911496
H          -1.88795491720529    2.43435433859767    0.50129696831640
H          -2.95513346951991    3.26576688814537   -0.45369953210044
