    26
        -50.46172232  Gyration_radius:  2.5196608771 Dipole_moment: 6.747
 S          -0.10110637693085    2.06493378466447   -0.88475750104693
O           0.47170125850516    1.82283956325313    0.43936854093692
O           0.76321118012786    2.80945958585621   -1.74560564472658
O          -0.52777102549764    0.77884124371818   -1.47720994145040
O          -1.43411067232069    2.87753981004235   -0.66702183567162
H          -2.03099882266049    2.29593057275395   -0.19482772946879
H           2.18892326112119    1.63611626454677    0.05035513181362
O           0.68728311400849   -1.94653592501873    1.28511762475381
H           1.29676514110276   -2.21364461662324    1.97417258719914
O           2.82677523028260    1.38904718357223   -0.64715628934653
H           2.57175355338734    1.98526638139815   -1.36636302714735
O          -2.45844076284697   -0.02239554000379    0.14589714446391
H          -1.83045404329715    0.23886816347155   -0.55643539916834
O          -1.81601274210916   -2.72726786650575    0.26123649606964
H          -2.28422770140607   -3.23641124858496    0.92466347575744
H          -2.49427541658203   -0.99199830428076    0.07875567266988
H          -0.91648944841648   -2.59063235499752    0.59798149062936
O          -0.62240298127619    0.09304728169715    2.09226166958450
H          -1.45828118860573    0.03224569155478    1.57953979172010
H           0.18025677002137   -1.14313936517772    1.65894332648806
H          -0.14250121457132    0.82284844215147    1.64700206132623
N           1.44412739039610   -0.82648583490328   -1.04750206805046
H           1.24568189134791   -1.32920849412589   -0.14890653043357
H           2.18293064239106   -0.07891853216666   -0.90840686428622
H           1.68868898645493   -1.47626921199138   -1.78695473094797
H           0.56897397738587   -0.26407667429779   -1.30414745166628
