    26
        -50.46172233  Gyration_radius:  2.51948979595 Dipole_moment: 6.746
 S          -1.78100707735953   -0.00236697157718    1.37228867407500
O          -1.65711014032755   -0.95725589689028    0.27090392331860
O          -2.05267790179903   -0.62423754991437    2.63001757712950
O          -0.58148974204643    0.86174304115976    1.40954853470455
O          -2.97159184092022    0.96481962179657    1.00957575392457
H          -2.69678176223737    1.45283428470854    0.23249589639679
H          -0.90638523942881   -2.33940166791137    1.08600345856637
O          -0.34976225054593   -2.61300645347654    1.84076118886094
H          -0.83618076100358   -2.23759499526788    2.58931184476204
O          -0.72029318311838    2.18615818086734   -0.87763696033719
H          -0.64065359331450    1.81884097262625    0.02492758937916
O           1.75844266967200   -0.70136536359931   -1.52594199755754
H           2.04438316422286   -1.45363668560093   -2.04547751121002
O          -0.69193517256842   -0.21612343071427   -2.06144587381027
H           0.78448744221731   -0.53862067403805   -1.78518010851201
H          -1.14519372164250   -0.63723091268311   -1.30095016186515
H          -0.77275438532953    0.74296447276942   -1.86422078877824
O           1.97293737489009    2.10521236525144   -1.57300756130687
H           0.19005058105075    2.43896556243584   -1.10840978468952
H           2.03672840965656    1.13718039683475   -1.56959831833580
H           2.17999989225995    2.39181963190557   -2.46387363079602
N           1.40371359148468   -0.76296210663395    1.14587846767708
H           0.67662984244766    0.01267702081619    1.27933215853921
H           0.88998159877648   -1.63601526967720    1.45880574390436
H           1.63363655642307   -0.80934212069534    0.12379434245591
H           2.23282564854471   -0.58405544249194    1.70209752350742
