    26
        -50.46172242  Gyration_radius:  2.51964039858 Dipole_moment: 6.737
 S           0.24158649024137   -1.36818245011835   -1.76713986734192
O          -0.13085611960448    0.03739680901937   -1.92752471217790
O           1.36177053162533   -1.74960821233846   -2.56853488943597
O           0.43997223435830   -1.66233380857248   -0.33151517368928
O          -1.01018654123716   -2.22660005492388   -2.19210818510416
H          -1.69916955751281   -2.03410701259337   -1.55510558606278
H           1.45168715185045    0.79649202358560   -2.17639860597685
O          -0.05798124880822    1.97069751428884    1.42265240510401
H           0.00446452996071    2.92578513055036    1.38404664102636
O           2.40989412901798    0.71196076396801   -2.00640656663772
H           2.59737685680108   -0.16475913932154   -2.37261668114595
O          -1.97249665604318   -1.30179970439050    0.69531881008614
H          -1.07755682544921   -1.55055593282867    0.39018839060251
O          -1.81072620464864    1.19318880556208   -0.26554757418347
H          -1.24722711404701    0.90672045355902   -1.01499711085033
H          -2.11987630468422    0.34261892021983    0.11664598674536
H          -0.77686735389462    1.71162495080007    0.74559999167906
O          -1.23982657796672   -0.00331242493608    3.04520354279520
H          -0.77796684660432    0.72648256482441    2.60330619572895
H          -1.95936294276731    0.38748001670535    3.54331891516471
H          -1.84514178426174   -1.07283307389447    1.63189456693292
N           1.86656377447651    0.29859183151601    0.54582931495090
H           1.29330342012276   -0.57511942589420    0.30930329615278
H           1.20479697605455    1.01851995101224    0.92444610670728
H           2.59857384002734    0.08350623484594    1.21420043711115
H           2.25525214299980    0.59814526936652   -0.39405962817464
