    26
        -50.45730957  Gyration_radius:  2.44902085567 Dipole_moment: 7.983
 S          -1.58968304635463   -1.79943762706747   -0.30333399755520
O          -1.69534936294866   -0.67343690547967    0.67572624170092
O          -2.82241130390088   -2.47707513736567   -0.49444026579340
O          -0.91526163488907   -1.33099868034237   -1.50638716316647
O          -0.54959303711293   -2.78345723672168    0.38502417961400
H           0.30293571052859   -2.41603649946299    0.09584554274920
H          -0.73927338649553    0.11569987585322   -2.05385780723212
O           1.83376426557543   -1.55613225771779   -0.03048438310222
H           2.43577110434075   -2.10410818710614   -0.53498126343133
O          -0.55084785996722    1.04651364566238   -2.36615876174036
H          -0.74755547220645    1.05172402586181   -3.30340034693596
O           0.72525796346586    2.19542160978340    1.22510125725532
H           0.77011832202478    3.05019286445085    1.65372973740981
O           1.80186827068319    0.86265451073657   -1.01107793720911
H           1.81645518151037   -0.66747970162539   -0.49230047321489
H           1.04128561637161    0.96000499490941   -1.61585034398799
H           1.60838974202818    1.44520834673034   -0.26203296375054
O          -1.53122726048441    1.91236172434626    0.02072144973422
H          -1.78366649473298    1.00388268742784    0.28687645292465
H          -0.17373397983923    2.15940714446754    0.75888327069924
H          -1.29777095583544    1.82918331457793   -0.92006776505939
N           0.43587687983726   -0.36726365644159    1.99135275843916
H           0.35914335745035   -0.63970579731659    2.96439983532162
H           1.14284293785520   -0.92832427419026    1.49814130174975
H          -0.53237608551044   -0.53567100928022    1.45648491456883
H           0.65504053875813    0.64687220528489    1.88208652002351
