    26
        -50.45406672  Gyration_radius:  2.48464522817 Dipole_moment: 2.032
 S           0.68027384138480    0.68211429562977   -0.44685893469234
O          -0.15102149765450    1.18060505342623   -1.54007693027998
O           0.06813166715682    0.94568992152111    0.85256196000542
O           0.91641119199554   -0.75759361240533   -0.61828190110188
O           2.02677256971081    1.41574089927499   -0.51442461175024
O          -0.90806870806460   -1.32484284427134   -2.32521093776701
H          -0.15686918165319   -1.28650114440661   -1.66949080272138
H          -0.79310410978041   -0.50135332517596   -2.81478891470999
O           2.42156284370117   -1.90860976686674    1.25832689496854
H           2.87928378010866   -2.62169371599722    0.81050115333332
H           1.80679543049729   -1.53222664109056    0.59414433173780
O          -1.68797969870451   -0.81395898846700    1.42309335485972
H          -0.93924462866698   -0.17153894457187    1.22771015566830
H          -2.19773802419473   -0.41166603866189    2.12971111636747
O          -2.61160196593274    1.69863119925160   -1.07433465917224
H          -1.61837798983695    1.62378771399173   -1.17461421590100
H          -2.92237570239571    2.17184965930298   -1.84833224546901
O          -2.83620056266608   -0.80923801687718   -0.80812714439260
H          -2.07564460131030   -1.12512034992496   -1.47702821452379
H          -2.41499471861409   -0.91009238185141    0.14634144655824
H          -2.89014590511638    0.21106080157969   -0.93818505714999
N           2.75434947807170    0.84968419180420    1.85697104817745
H           2.86168172988728   -0.16430984284199    1.84465237692765
H           2.43990050503067    1.23955742130491    0.42031207750275
H           1.85536576588096    1.05710270158979    2.27524295824921
H           3.49283851115054    1.26292174473308    2.41018569527789
