    26
        -50.45025694  Gyration_radius:  2.47455412035 Dipole_moment: 4.739
 S          -0.89036933387998   -1.33261747156119    1.81474577096844
O          -1.44035593144664   -0.52113711641732    0.75185416218260
O          -1.69321498378163   -2.41271999989930    2.25510290560791
O           0.51451178736216   -1.82406479586756    1.36030086544299
O          -0.51268284312163   -0.42491884682215    3.00139495025557
H           0.15339188063379    0.21457490363893    2.62200224057171
H           0.59158067269459   -1.92262554546937    0.36260863203092
O           0.11265793588939    2.01491822386262   -1.81978862179419
H           0.37158068677822    2.89605136251746   -2.09216943603310
O           0.79411625674808   -2.04808183813779   -1.18554921246076
H           0.71451220509842   -2.96457839571561   -1.45351290504950
O           1.24342809843371    1.13237258761955    1.91156878127792
H           2.04214241150801    1.11073512028749    2.44178253974425
O           1.93380003642445    0.46167656296795   -0.51310387002010
H           1.76836211490152   -0.45717278515034   -0.75597269678955
H           1.34663817603594    0.99830021404085   -1.08360908549155
H           1.51620183491799    0.82910974652220    0.99481413355348
O          -1.03456905696902    2.12671828835517    0.55988766547557
H          -1.33877687663007    1.20202962330717    0.63512622298549
H          -0.30029203329292    2.19418121372936    1.18131736452268
H          -0.39342606981101    2.12244045585059   -0.97265641562838
N          -1.18028559724933   -0.64879851292638   -2.09422543289034
H          -1.62383998830555   -0.55178132829337   -1.18332309667532
H           0.01676415160460   -1.53528156935080   -1.61722937075911
H          -1.88092466059766   -0.92796964906367   -2.76774545250555
H          -0.83095089394796    0.26863954197445   -2.35362062853097
