    26
        -50.46846776  Gyration_radius:  2.39952591257 Dipole_moment: 5.642
 S          -1.13809740319967    0.55377865608939    1.30835268391960
O          -0.97616742136942   -0.91216218240139    1.15049150102320
O          -1.12012740318405    0.94895760993877    2.69075052976317
O          -0.11509839829221    1.23394611899720    0.52210989281605
O          -2.52331293469378    0.91098532944447    0.68967841579541
H          -2.43445621271341    0.75589102904755   -0.28138708657786
H           1.54771053682254    1.99680153867680    2.09339458495211
O           1.80776938540077   -0.84181225195784   -1.49989991554308
H           2.57421079255585   -0.86528707851701   -2.07402356572099
O          -2.25580443856968    0.28970929035922   -1.88616294904572
H          -3.12777580074172    0.06792774420366   -2.21742977141943
O           1.51081183625813    1.25599319585241    2.70597913235225
H           0.54905484230188    1.16602110938749    2.90163070177545
O          -0.87332436882468   -1.85044749927871   -1.31581999204809
H           0.06391870228462   -1.70680885551664   -1.50617620957163
H          -0.98054771489699   -1.64703925932116   -0.36087212921152
H          -1.76924521002120   -0.57435894203154   -1.76992029025517
O           0.40943380597108    1.28428696656873   -2.02730822427431
H          -0.46512057224202    1.10501481990876   -2.39202629505035
H           0.23648622341676    1.43148050476267   -1.06945218121952
H           1.30353350188199   -0.00967576931511   -1.74788217435503
N           1.59264407018430   -0.93612366033685    1.21806422821859
H           1.73645763106413   -0.04420927617741    1.77818371989642
H           2.07385221499762   -1.72466196781361    1.63786753411124
H           0.52560209034743   -1.06555367133992    1.23795877814357
H           1.84759223526117   -0.82265348922951    0.21389908152299
