    26
        -50.45090898  Gyration_radius:  2.47162227864 Dipole_moment: 5.656
 S          -0.81539442255832    0.24406609223113   -1.99360662039756
O          -1.81410488699196   -0.21131320397650   -1.05814658297453
O          -1.00774091502114    1.54425414246187   -2.53743807752567
O           0.57299654588400    0.23083771857771   -1.25446285703500
O          -0.61331836602126   -0.81767699840180   -3.06795185185933
H          -0.81357522804684   -1.72072821184562   -2.60913233306909
H           0.59269713342035    1.12707118747004   -0.77168712573544
O           0.21877121742606    2.47404583554198   -0.13646210171741
H          -0.23235928010643    2.85072321242123   -0.90066398361599
O          -1.21021155478790   -2.80338385924192   -1.63060323542845
H          -1.92914318727306   -2.30498619922175   -1.22144883037056
O           0.13104116475948   -0.59459290597169    2.36105176958592
H           0.19912568490780   -0.79348700363522    3.29569359232792
O           0.67008343306469   -2.16458359383760    0.13547726887747
H          -0.48141670420168   -2.79382714836049   -0.96290087268854
H           0.87587254537021   -1.37570663979126   -0.38439022838852
H           0.35088902912757   -1.82162565069994    0.98662788968115
O          -1.60444086624953    1.21601019861819    1.21368703057694
H          -1.92082746920729    0.71331738617483    0.44239893981545
H          -1.11202776978996    0.56600709527371    1.74673626279915
H          -0.50602324041839    2.14563795449328    0.47623077074432
N           2.19801219872444    0.92227505641533    1.56446871263719
H           1.75626309509587    1.73782518376730    1.15288895049684
H           0.92408337527453   -0.04077182520077    2.12055371359267
H           2.66800071032358    0.42579794111386    0.81709520156762
H           2.90274777727114    1.24481423561030    2.21598460808925
