    26
        -50.45638429  Gyration_radius:  2.49556002128 Dipole_moment: 4.637
 S          -1.62791175123407   -0.76934073136924   -1.24173188388381
O          -0.86257051681571   -1.32001286800157   -0.10705328086946
O          -1.95112105284274    0.61310364488103   -1.02195107962704
O          -0.98570203055454   -1.07485016681647   -2.50015808613734
O          -2.99121286318026   -1.58127193936263   -1.24943236260654
H          -2.76644262135866   -2.26757092482407   -1.86726247815986
H           0.17827733015968    0.02801449994594   -2.88289359582146
O           1.61437814388426   -1.04745270496642    0.36605750498607
H           0.65955916691084   -1.25587159353309    0.10218810633091
O           0.95224998725917    0.60844255947531   -3.06276620493930
H           1.44520893964614    0.18232999073671   -3.76562550727962
O          -0.24137200421252    2.09151456084214    0.39402651563915
H          -0.88089040302023    1.77703569456592   -0.27408620769915
O           1.94286912114544    1.15185294779022   -0.68488502288898
H           1.18896251555668    1.64947017032231   -0.26148226177881
H           1.84030323947068   -0.07609951051881   -0.13716691212858
H           1.67060546537327    1.03936006649948   -1.62886929844253
O          -1.44754495370327    0.17010427149176    1.98530549898273
H          -0.50614493463756    1.60748038889185    1.19246915576806
H          -2.35414282109861    0.47006644466485    1.89791216580619
H          -1.29709743265394   -0.42905820515816    1.21851476499939
N           1.29586677108874   -0.29082603747539    2.80315188868993
H           1.52163041593220   -0.93663047969078    3.54801058270812
H           1.55363703896485   -0.79939282841343    1.38069570458561
H           0.29068090209926   -0.13094567372967    2.80880745180236
H           1.75792434781172    0.59054840373536    2.98822483193746
