    26
        -50.45406680  Gyration_radius:  2.48466750611 Dipole_moment: 2.030
 S           0.16431358048280   -0.53060742946321    0.90516893054102
O           0.27738299361698   -1.25974760845797   -0.36516418761235
O          -1.20834549207399   -0.60834306090642    1.39951484963279
O           1.07198642787547   -1.20315367469629    1.94416300388151
O           0.59318232983034    0.85509621014044    0.73586066372734
O          -2.19608940075702   -1.47229937723903   -0.99769385947531
H          -1.20181126648847   -1.47961044366665   -0.91234039777455
H          -2.47947091451264   -1.62758975672604   -0.08851224951510
O           2.70329392812177   -1.27100401550053   -1.47275906946031
H           1.78601214339575   -1.22445393408133   -1.13049421252488
H           2.76151237786898   -2.10542036794251   -1.94058680899405
O          -2.70757741666719    1.45273993629921    1.19016361222848
H          -2.04799146261761    0.72485963578386    1.38352466354626
H          -3.48160768302602    1.25862030533970    1.72194603863066
O          -0.22853424753846    1.81631334355249   -1.47924224849243
H           0.15881040016739    1.40569919600297   -0.64688230915394
H          -0.13521343545373    2.76500027938700   -1.36847774435984
O          -2.58926487841398    0.98558801725055   -1.29548109426136
H          -2.75833441219113    1.25317841533955   -0.31537908258226
H          -1.62649724780054    1.35411509432918   -1.48498678068514
H          -2.47768848805813   -0.06931251122844   -1.26994701521448
N           3.24308876193068   -0.18357271445453    1.09649214357541
H           3.35346314454528   -0.58342819282079    0.16484543777449
H           4.14312501260701   -0.13540366424071    1.55455263668713
H           2.86382831737049    0.74926749533343    0.98620577075817
H           2.01842695778195   -0.86653116732828    1.68550929912475
