    26
        -50.45406683  Gyration_radius:  2.48467666425 Dipole_moment: 2.031
 S           0.72662079705143   -0.28614552036119   -0.71947604754760
O           1.04793731720536    1.02333551419758   -1.28221974299849
O          -0.68875062073009   -0.60573677391633   -0.88461511947861
O           1.55853678693052   -1.33323809904933   -1.47262681658381
O           1.09621120697203   -0.32072398498620    0.70192640389494
O           0.61309944474562   -2.62199638223681    1.95984617204145
H           0.73537591732121   -1.74154613463004    1.54684214966545
H           1.29452014155308   -2.68863123155393    2.63046492143911
O          -0.85899489103636    2.66587434889987   -1.73572580253051
H          -0.46903676632745    3.36981096996100   -2.25726518240242
H          -0.16667663881325    1.94490076618375   -1.68030616246055
O          -2.10542601916136    0.48951823586706    0.93175909181729
H          -1.53239386522820   -0.00336148030083    0.26831990330272
H          -2.99923791848731    0.44718760967037    0.58491941966348
O           1.35731627794338    2.18398387699863    1.17239882657562
H           1.76233742210062    2.36581574716608    0.31569823906273
H           1.29883445048725    1.18776147550974    1.17025372573217
O          -1.05130746251737    2.76216123247945    0.78708249545739
H          -0.03849326214983    2.58081419129102    1.04652250325331
H          -1.04518137460165    2.85112232121234   -0.23897423402159
H          -1.53891161387582    1.84846845010075    0.94847891842987
N           0.17039493868376   -3.34025938781054   -0.75363514984259
H           0.30875284305961   -3.38418130463891    0.25579604740835
H           0.16226462844937   -4.27581899460079   -1.13684949815047
H          -0.72311459054369   -2.89323764370524   -0.92096326252558
H           1.08532283093203   -2.22587785170133   -1.23765180924687
