    26
        -50.45638545  Gyration_radius:  2.49525811546 Dipole_moment: 4.663
 S          -1.88828751573328   -0.60531499249935   -0.92211121302804
O          -0.91723966369277   -1.29095234656687   -0.04779272964502
O          -2.10047277051695    0.74920333966099   -0.49342708830555
O          -1.54667350780838   -0.78094593997245   -2.31554192454744
O          -3.25206624587702   -1.38861694908373   -0.71239072469246
H          -3.18209512315178   -2.02596943397738   -1.41399315072114
H          -0.45671522027750    0.34264272807217   -2.83239200265528
O           1.61117861727235   -1.10675473124294   -0.11139110091725
H           0.61412594487622   -1.27078805876595   -0.17650756726158
O           0.27892732508485    0.93006221609689   -3.11887501633738
H           0.58592826369207    0.58092262192265   -3.95706805076667
O          -0.06569652307258    2.03943623460692    0.65236414622063
H          -0.84757743414424    1.81099341812686    0.11335419505151
O           1.78943543270723    1.18866584371321   -0.97789770273322
H           1.16808826450417    1.64928762587291   -0.34832043173057
H           1.75960202320716   -0.09149781960078   -0.55004405624937
H           1.31257730200269    1.18572572107019   -1.84408737352060
O          -0.97137953672852   -0.02587599906367    2.26273831086410
H          -1.01603811746579   -0.54106992621299    1.42484941707847
H          -0.16880070984161    1.47429112106163    1.43461634168206
H          -1.86183357913443    0.29919117380371    2.40771847196803
N           1.86483308048621   -0.61286193644812    2.39922726515832
H           2.22544022830644   -1.33745882840691    3.00563803238600
H           1.78407422175669   -0.96871036597926    0.91159409226080
H           0.89221681960094   -0.44109031301767    2.64520596395050
H           2.38844842405299    0.23748559680838    2.56453387650236
