    26
        -50.46788079  Gyration_radius:  2.39867274739 Dipole_moment: 5.648
 S          -0.47877279342180   -1.22623295509833   -1.23552324742351
O          -1.46854245732895   -1.02887831575839   -0.15038669676604
O          -0.30728300018320   -2.61573094215404   -1.56348544653021
O          -1.03669900873319   -0.47322465988652   -2.48239559076663
O           0.77707074783551   -0.58576524957324   -0.86034892044191
H           2.28377148933307   -2.39175104445279   -0.19864000466039
H          -1.01522886495948    0.48879776306134   -2.26224299688720
O           1.61668783083489   -2.93721408514057    0.22842551715518
H           0.90732984602769   -3.01333450805628   -0.45180791929299
O          -0.84138348899235    2.11544790998085   -1.87332923872135
H          -0.75714250790147    2.60857690460577   -2.69107006530072
O           0.48145073135953    1.37791694629809    2.01620335446534
H           0.38716952836507    1.89496095291821    2.81721596633657
O           1.43729231497294    1.92654461504315   -0.61993080512699
H           1.36757805234645    0.95888157938177   -0.77782841724398
H           0.05635954465036    2.14532081119825   -1.42966585193683
H           1.32724918094277    2.00783018282721    0.33664678757082
O          -1.76044908893781    1.46176114849766    0.67879188319338
H          -1.80554438378924    0.52605213102463    0.38217270755051
H          -0.38676027527594    1.46521635328729    1.52495729556908
H          -1.67621945780792    1.96676110153018   -0.14001321593656
N           0.19026381012325   -1.33764320419012    1.79034052060909
H           0.89519994340638   -1.95121118598044    1.28358150556542
H          -0.61035513946526   -1.24915462488111    1.07776108885534
H          -0.12204646012271   -1.76438504839016    2.65647254368144
H           0.53900388675642   -0.36954258609658    1.94409924648486
