    26
        -50.46942772  Gyration_radius:  2.44026399202 Dipole_moment: 3.757
 S          -1.19275122241482    0.00189405522376   -1.31048133477829
O          -0.66899810398913    1.19316893050309   -0.59962020681957
O          -0.91784463847661    0.07287471523940   -2.72224375415747
O          -0.63604897962288   -1.20235043768359   -0.69526875563423
O          -2.72621021787938   -0.00319144682188   -1.10335069025144
H          -2.88994124916236   -0.01373795550606   -0.12381250792906
H           1.07074862364425   -1.81408832189121   -1.95167076769986
O          -3.09004260851911    0.16656711597418    1.48653189751724
H          -3.68813022067384    0.90209843835132    1.63223724569298
O           1.38853140505555   -1.14330303505575   -2.56620404385448
H           0.55408448732272   -0.72506090103113   -2.88293027448367
O           2.37658285217579    0.43827537715777    1.51122568578503
H           1.77607936607538    1.03078559188658    1.97855227809742
O           0.58981792703647   -1.60186395784007    1.53195809668298
H           0.35826364247898   -2.47886166116008    1.83916195393740
H           1.96170859336540   -0.44024507602472    1.58255395203205
H           0.12157110608259   -1.48308965082296    0.66208436625337
O          -0.57285429265001    0.85479972550183    2.01694415346282
H          -0.21168752710154   -0.04598809650229    2.06438883946504
H          -0.57286092996481    1.08358936893662    1.06078457532582
H          -2.20986036540563    0.44765118160012    1.83864601288345
N           1.86678498428160    0.96660266922429   -1.05652400321081
H           0.83277514460694    1.20246399139471   -0.92511572234221
H           1.86905957382276    0.09870591144668   -1.67122976795777
H           2.36480010153550    1.72979635747224   -1.50185746828864
H           2.24642254836742    0.76250709043623   -0.09475974967133
