    26
        -50.45090887  Gyration_radius:  2.47175353327 Dipole_moment: 5.664
 S          -2.01533404462070   -0.54398254983002   -0.58889815199713
O          -2.01119062266918    0.46006526156335    0.44641755172265
O          -2.52849969709938   -0.14287305427432   -1.85343492404961
O          -0.53082309106830   -1.01927484960028   -0.79946104360201
O          -2.68112496899551   -1.80825702176342   -0.05919577633058
H          -2.49164752494738   -1.81910389193284    0.95583872082831
H          -0.15053153023399   -0.32947658804948   -1.44444497041404
O           0.08087214487749    0.91772734003055   -2.31005018571497
H          -0.78099286097945    0.93133848914154   -2.74170773409568
O          -2.05523467443895   -1.47291893480427    2.36166932955541
H          -2.23391347305435   -0.52670673181050    2.28694602232479
O           1.81379180663165    1.04821133234986    1.24591926195142
H           2.54310843740025    1.46910817598924    1.70268860715681
O           0.52597252440359   -1.36087444715991    1.73947210960324
H           0.29366078520222   -1.44205087922015    0.80446111417094
H           0.93892784703190   -0.48464938670080    1.81524855015499
H          -1.07037229249606   -1.54964444872981    2.32646105205407
O          -0.18095567004610    2.33875272915641   -0.15553571910243
H           0.53554826709285    2.03349351695537    0.42969522973834
H           0.03477008569831    1.60713569090086   -1.58130435607263
H          -0.96925420242581    1.85362086466072    0.14605064706593
N           2.65369616665171   -0.07877004739670   -1.04139465307856
H           2.06109993524488    0.34038827544240   -1.75048565086332
H           3.61440906331661    0.00040612533801   -1.35101649569270
H           2.18380430410257    0.64181118189622    0.41437873042607
H           2.42021326535349   -1.06347616215810   -0.99831726572671
