    26
        -50.46788076  Gyration_radius:  2.39858651619 Dipole_moment: 5.650
 S          -1.36515028271160   -0.79509199144991   -0.87403893680532
O          -1.67855350295200   -0.39317312268587    0.51752242092424
O          -1.89024974430791   -2.09552313582660   -1.19153977769494
O          -2.03620865610291    0.26573183226775   -1.80006745455284
O           0.07622360589445   -0.71239933688287   -1.08301347443099
H           0.89523462389800   -3.01266019921773   -1.04330707542181
H          -1.55818217931928    1.11556970387202   -1.64629052994293
O           0.30056217088476   -3.32789649263845   -0.35627972338182
H          -0.59057307203558   -3.05106425773485   -0.67418568193716
O          -0.63023129119150    2.50085549776610   -1.42814307898201
H          -0.69677689867409    3.03168950550120   -2.22358497623000
O           1.73767642644831    0.83285150668232    1.57432781952382
H           2.17968703609324    1.24109714488600    2.31982797183416
O           1.69163614524376    1.33014303636014   -1.23836896973680
H           2.01310277844320    1.32095517860821   -0.32709388422937
H           1.19669406617220    0.48447747700255   -1.31557712324332
H           0.30500976656691    2.14238086637879   -1.40284689144407
O          -0.62897395194732    1.90199550124408    1.29645356426567
H          -0.69080050982741    2.44261006257208    0.49863955732462
H          -1.14612336389938    1.09445082608813    1.08214964560861
H           0.85285547020781    1.29391669446722    1.48889983937398
N           0.35723235433244   -1.53468082263045    1.59672780645963
H           0.27938060609253   -1.92561133955859    2.52996194465507
H          -0.55925907739058   -1.06816918045181    1.28158486571783
H           1.08234991157857   -0.78996999540092    1.55257433432784
H           0.50343758849507   -2.29248494925422    0.86566779806424
