    26
        -50.46788055  Gyration_radius:  2.39858178472 Dipole_moment: 5.645
 S          -1.05446894585645   -1.06546086708778   -1.00710201832632
O          -1.62971126559342   -0.70221058091094    0.30954249336727
O          -1.27180488789804   -2.45036440468430   -1.32731450984350
O          -1.77980921573843   -0.17734908029074   -2.06462375633398
O           0.35939392958942   -0.70652843839625   -1.02706846915703
H           1.58959786116000   -2.80019704492986   -0.76738345585367
H          -1.49546856222799    0.75209439828747   -1.89237140567421
O           0.97629677928524   -3.21064687267061   -0.15067721446491
H           0.10186235938270   -3.12080582096116   -0.59683412978627
O          -0.88519242783560    2.29560551029349   -1.62274705212951
H          -0.93794409092087    2.78420930118515   -2.44582173865853
O           1.30739074312653    1.19181903078290    1.75051962908939
H           1.55331682281483    1.69521044668079    2.52765865129365
O           1.56688563274717    1.60624778930458   -1.06353785433646
H           1.25720666884339    0.67910790008312   -1.16504047321536
H           0.08782564827528    2.12751710083653   -1.45382824506880
H           1.75124324087899    1.68034410233895   -0.11780462681283
O          -1.15595962545989    1.77148588971286    1.10438028575362
H           0.37209343038803    1.46888962087063    1.52422344429915
H          -1.20611233765976    2.27062777228887    0.27920888185548
H          -1.47469623701274    0.87359648653521    0.86399214452946
N           0.41550582902901   -1.39938596391168    1.70349575034696
H           0.98388480664364   -0.52821218414490    1.72061873008974
H           0.80475529173347   -2.12920244337837    1.03565979303724
H           0.28388409575628   -1.77818939324717    2.63569677074362
H          -0.51997555340862   -1.12820224460936    1.24715838523406
