    26
        -50.45090897  Gyration_radius:  2.47158377203 Dipole_moment: 5.656
 S           0.14538928105214    0.35323243862612   -2.13363879864441
O           0.03774225227475   -1.05238898842695   -1.82945413495081
O          -0.94462727940777    0.92981607360070   -2.84260717614095
O           0.29840104093824    1.12633157539722   -0.77236982734003
O           1.48810484495359    0.62009548212598   -2.80303993478427
H           2.13604168054572   -0.08718813757157   -2.42073708748757
H          -0.66303360544292    1.25042850998524   -0.46121208677039
O          -0.10397878546626   -1.20362172659730    2.11763989837691
H          -0.17538413194976   -1.65377288272621    2.96024510244849
O           2.74807733692635   -1.25916192296270   -1.68688882770357
H           1.98505470297862   -1.84303906879981   -1.78491560996943
O          -2.18530961708267    1.15299675175632   -0.28454404030601
H          -2.42587837580141    1.28139347965886   -1.20923274273999
O           2.12821360991542   -0.32231408812954    0.72156190557037
H           2.73229663821752   -0.97633112314345   -0.73991674383370
H           1.60467005279570    0.37529467961554    0.30419679013789
H           1.48299761675467   -0.84569465160901    1.22526684927181
O          -1.88431540108687   -1.40550129628138    0.02084222262720
H          -1.31369955390378   -1.49444893686768    0.80540254633689
H          -2.24608211271148    0.16424246007799   -0.11947395329231
H          -1.27778372030101   -1.49004115091692   -0.73590952148268
N          -0.74211543689757    1.39142376670590    2.37583187191503
H          -1.48757649678881    1.52625896316910    1.70075561960481
H           0.05281576662223    1.93246559485649    2.05769739531136
H          -1.04845738953683    1.77792894640334    3.26001744626260
H          -0.34156290757199   -0.24840472798304    2.27448284758095
