    26
        -50.45612319  Gyration_radius:  2.45583051214 Dipole_moment: 8.964
 S          -2.02006086126897   -0.42162387785238    0.44542940916260
O          -1.08504859075513    0.25462731351492    1.36789799969093
O          -3.35464269684374    0.07336148952040    0.58705682050795
O          -1.49682756180879   -0.02142824296688   -1.01203318466635
O          -1.84112641374167   -1.86127237672274    0.49971211591021
H          -0.44267154577006   -2.47574887498813    0.29404776485716
H          -1.70097762731158    0.95024235666206   -0.99772753968321
O           0.49561923683763   -2.83188686627709    0.19675484515957
H           0.42060319451862   -3.77862365195628    0.32427737435067
O          -2.10973876043596    2.35609105597958   -0.27570824918886
H          -2.74875510665777    1.86344198409067    0.26233842721918
O           2.25076314759709    0.71261118887971   -0.82165265409011
H           3.07323379501132    0.83395828199301   -1.29727424777539
O           0.79849931169321   -1.11944977888458   -1.95851198087492
H           1.71298312093565    0.05179331213474   -1.34841985839139
H           0.81573696929155   -1.89056699295154   -1.36850691226970
H          -0.09251063067882   -0.74599599939007   -1.83976754871420
O           0.61326661802641    2.75769760240409    0.26417928656646
H          -1.31029433409408    2.47362185033894    0.26628830603950
H           1.14347653718654    2.06796447949621   -0.16165482752441
H           0.57268661151333    3.49126411961735   -0.35248189539165
N           1.30020664427120   -0.55470032290576    1.40148300055593
H           1.71444033637626   -0.48545811893780    2.32334011180865
H           1.82678319205563   -0.00226123627913    0.70283493287953
H           1.21238002705677   -1.53661897369327    1.08012957473983
H           0.25197541699884   -0.16103973082808    1.41796890911806
