    26
        -50.46227661  Gyration_radius:  2.55410118087 Dipole_moment: 4.584
 S          -1.03805542224509    0.66185949197281   -0.53368891656076
O          -1.51469711739392    0.46980885375954   -1.98241366159587
O          -1.85161358954057    1.66938860943728    0.08695833811070
O          -1.14896218769020   -0.63791908727525    0.16060924436480
O           0.38833366377208    1.05213593830532   -0.58741952931227
O           2.02878226017743    0.90362456260859   -2.67153940263940
H           1.48316377325762    1.04998505553951   -1.87086513867219
H           1.91371291725696    1.68230092876550   -3.21855702088329
O           0.37622942779536    1.06314831495998    3.54311904275571
H           0.53510228321164    2.00844793224149    3.56150263871917
H          -0.58081668973890    0.95811051484327    3.29843827268727
O           0.28567142257081   -2.58155179743106   -0.83965090701577
H          -0.24632095334459   -3.36724497093829   -0.97547789311883
H          -0.32518012106498   -1.89462956125376   -0.48180448073464
O          -2.03670833453252    0.75999022363741    2.54013720606637
H          -2.29574254495823   -0.14004386355839    2.32958931427633
H          -2.03889940547540    1.22239073225016    1.67069973342633
O           0.22169213819520   -1.05025278421990   -3.07913738615727
H           0.40756085817116   -1.70823214452006   -2.38078995924182
H          -0.86870749758945   -0.14971563659388   -2.46625398335324
H           0.99756592904939   -0.45236363380949   -3.09851640614754
N           1.10638099145107   -0.32242966721663    1.42640368214164
H           1.89914145224733   -0.95535095850348    1.40793998092410
H           0.99767970723042    0.20757834785776    2.33709762130857
H           1.09632703327075    0.36049103137179    0.60438440498149
H           0.20836000587566   -0.80952640223849    1.21923518569481
