    26
        -50.46846762  Gyration_radius:  2.39937394209 Dipole_moment: 5.642
 S          -0.71625060590508   -1.22471576752450   -1.13990277488209
O          -1.44299412929091   -1.00793803030201    0.13478993203100
O          -0.61101069614676   -2.62107966448177   -1.46617436423054
O          -1.54291460572661   -0.49992929497052   -2.24457859755658
O           0.58575542358676   -0.57191223205803   -1.06329469553920
H           2.20172723840360   -2.32767249459203   -0.70563756226283
H          -1.46103533076641    0.46571399124813   -2.05544641547072
O           1.66661705699685   -2.89485934454466   -0.14224777371785
H           0.82635555580111   -2.99561232839696   -0.64738255064530
O          -1.42577621166564    2.06949542999533   -1.55475042021725
H          -2.21773573003324    2.49078379704657   -1.89324788971554
O           1.09773493139333    1.36780028216708    1.77427379094782
H           1.75591253401503    1.86779759103114    2.25849177834932
O           1.30455664505949    1.91151678808312   -0.75879098595442
H           1.15273194413727    0.96744342577005   -0.99252876552141
H           0.53971879712613    2.36489425500991   -1.13225056939451
H           1.21715248597374    1.61799272661142    0.80920386831628
O          -1.65839060637990    1.48485093107208    0.97905073014098
H          -0.80618782757190    1.58013542182324    1.42615749010691
H          -1.56470596334107    1.95361467305975   -0.57281508010485
H          -1.72354679382960    0.53439799218791    0.73976710681642
N           0.58373937777442   -1.30995451960713    1.68583240347606
H           0.45506168847788   -1.73094947317403    2.60007850086666
H           1.17005410814394   -1.92608579661680    1.04822404119956
H          -0.34608380013503   -1.22509576971863    1.15295021726617
H           0.95951448390243   -0.34063257912500    1.76022857569716
