    26
        -50.46846773  Gyration_radius:  2.39940257906 Dipole_moment: 5.640
 S          -0.70971602265138    1.66333942444084   -0.20274622389297
O           0.20231818633017    1.19962169844781   -1.27656923069413
O          -1.88130218424319    2.30486692370468   -0.73480728716502
O          -1.03772494201069    0.53686542545338    0.66369310777348
O           0.09832788825128    2.69113514246444    0.64541449987313
H           0.80430230156334    2.17221463066908    1.10072718900326
H          -3.27559446108749   -0.13841336284069    0.07612943433469
O           0.71541461149946   -2.38981085055842    0.00150544398130
H           0.77630661391793   -3.31920717822746    0.22540584228072
O          -3.22863904386483    0.02844427966268   -0.87015544789123
H          -2.88442333693222    0.95027166559285   -0.92504091134218
O           2.08181672114175    1.25007454093435    1.68482255497440
H           2.81858445602187    1.84563578964114    1.83221098530360
O           2.37222106304078   -0.10579396096187   -0.52735538447169
H           2.30709883678095    0.71753624726891    0.87084938463691
H           2.00276355288407   -0.99412430606579   -0.42928667754379
H           1.65714576524937    0.43161589272512   -0.93315668503916
O           0.41234200503272   -1.00458188737269    2.17956603915140
H          -0.24248004139566   -0.41767202782473    1.73710691730182
H           0.60575858878997   -1.90345213754381    0.87309424844041
H           1.14785583254870   -0.41457621129605    2.38172165418181
N          -0.95499062859606   -1.05664655866971   -1.69409672022067
H          -0.46148025363865   -1.69112268516233   -1.03062751730110
H          -0.42314205779843   -0.12307013327130   -1.65891810213303
H          -0.97517991716845   -1.44171066148480   -2.63267556167676
H          -1.92758351371970   -0.79143969974173   -1.35681155188053
