    26
        -50.45123060  Gyration_radius:  2.47050752001 Dipole_moment: 4.661
 S          -2.10297090599986   -0.97746511029780    0.60775824362356
O          -1.21578624103373    0.00775630023816    1.18516649794305
O          -3.43931131044625   -0.96772452352151    1.07467890289832
O          -2.04398827437080   -0.81892287903939   -0.94114490772814
O          -1.48498857597102   -2.37507976940878    0.79034997549346
H          -0.62458508786980   -2.35133490337087    0.27166204875823
H          -1.79871247821779    0.11161051986603   -1.21514275079074
O           0.64958833452402   -2.26690365816392   -0.63510432301683
H           0.52069996191447   -2.89068849219484   -1.35242271831779
O          -1.34918056830892    1.55447251678569   -1.69400955564735
H          -2.09827698252509    2.07888566086120   -1.98089153275858
O           2.19197220794099    1.45131628741948    0.23482739175829
H           3.10427424712127    1.71563788098138    0.35486277399266
O           1.04458294661372    0.04311550154356   -1.81284677985538
H           0.78543655831314   -1.37928470844289   -1.07329766103089
H           0.23612164081260    0.52639580365403   -2.02247111028877
H           1.52848302589733    0.59801398270861   -1.17252578093227
O          -0.35606740238189    2.46659763740205    0.49992486781065
H          -0.70647120700749    1.70167338285751    0.98901467259523
H           0.60098689610786    2.30399356998658    0.43063567224640
H          -0.97267821615763    2.00801868049881   -0.87341776915017
N           1.52558099419162   -0.59811994728963    1.75841159659880
H           1.78617618206446   -0.74534853202504    2.72500863918519
H           1.68095872624944   -1.46405000136792    1.25514150284897
H           0.52135167941462   -0.42129631523002    1.72935123663682
H           2.01680384913118    0.68873109553421    0.86648084712425
