    26
        -50.47071341  Gyration_radius:  2.41577226746 Dipole_moment: 4.144
 S           1.23049382667925   -1.55384951891679    0.42395371641917
O           0.38307841371048   -2.05255899759713   -0.64605355810597
O           2.03829710020416   -0.41544452522223    0.05820054898720
O           0.46130609557442   -1.30831071432572    1.64598328724586
O           2.23956753970972   -2.72547628623462    0.76428737101030
H           1.67028326194312   -3.48717067669355    0.77795131207109
H           0.85505370588240    0.21747840607166    2.12678835333488
O           1.19096583758940    1.14367196857363    2.14108998085725
H           2.04289124331884    1.06700842453806    1.69661609335734
O          -2.40857488809826    0.68711395213970   -0.34053335382335
H          -3.35078321551960    0.85531015981043   -0.30520899345841
O           1.30960925490986    1.43835595865307   -1.71034836821175
H           1.79286969360227    0.78228232471578   -1.16831431615557
O          -0.61109392229064   -0.24509523170337   -2.38767293407185
H          -1.36749282335805    0.06852790073248   -1.87436317566669
H           0.66314897830725    0.89027049655021   -2.21563357767650
H          -0.22578778720176   -0.98159639385241   -1.87499216612180
O          -1.92617663249375   -1.66721066081874    0.64614553167057
H          -2.27115225771089   -0.21088552278176    0.08300937752763
H          -1.46676342679510   -2.09248609123760   -0.09348268406008
H          -1.18995743089805   -1.51823582707705    1.27389439164378
N          -0.23118413166854    2.24586569444053    0.20469763831156
H           0.41819514008868    2.02010794898574   -0.64302704425876
H          -0.39629346929328    3.24243760211700    0.28966584878563
H          -1.12297214910136    1.73309451688633    0.06473933251937
H           0.27247204291052    1.86679509224884    1.06260738786619
