    26
        -50.47071384  Gyration_radius:  2.41582424553 Dipole_moment: 4.139
 S          -0.22632580273264   -0.60197706595759    1.92261826638351
O          -1.56712763962230   -0.67069131885128    1.36562922069768
O           0.72775365725817   -1.47137631215488    1.27738751217633
O           0.25441170129432    0.77939366180768    1.99407684889287
O          -0.34999069467969   -1.10638933290274    3.41832029862444
H          -1.13855985851748   -0.66644817096476    3.71677489103211
H           1.74326233616773    0.77463170967967    1.29013720542256
O           2.53977719894219    0.51693093589503    0.77039037719526
H           2.65221590596065   -0.41223631096172    1.00074546238420
O          -0.88098322839768    1.55406491075710   -1.78855032618662
H          -1.20152523598511    2.27526207045542   -2.33118097280809
O           0.64949228416981   -2.14484621226159   -1.29821119379179
H           0.73859451077342   -2.13000264983537   -0.32369101208050
O          -1.79053720083553   -1.13077610712989   -1.28606160132708
H          -1.81947839740483   -1.06097932115869   -0.31249379136615
H          -1.65509735693871   -0.23124263417545   -1.61247692367950
H          -0.31365318066626   -1.98888932123368   -1.44518602357549
O          -1.69065490315022    1.90053468942099    0.65543960463660
H          -2.15951613809892    1.06741236793996    0.81655908587274
H          -0.88547602398042    1.77795172860488    1.19765103257104
H          -1.18662181667599    1.75248992603067   -0.85475795796223
N           1.52418294460413    0.26329344697031   -1.65688276227075
H           1.98705269266093    0.46752718452961   -0.72020642192603
H           1.21036837202486   -0.78114366048626   -1.60996217576494
H           0.67077178733865    0.84494904838392   -1.76225113799479
H           2.16766406652239    0.42255673758614   -2.42381748518778
