    26
        -50.47071369  Gyration_radius:  2.41583898803 Dipole_moment: 4.143
 S           1.84208119291373    0.84233911706699   -0.08411068596233
O           1.65496537073406    0.53255440287217    1.32338232162659
O           1.82370083494599   -0.31059033343595   -0.95175763518966
O           0.91006172013751    1.87907587232941   -0.53308041079853
O           3.29154639030743    1.46800757208702   -0.20422055917265
H           3.31723297022268    2.06550675285075    0.53525943842563
H           0.20285985814725    1.28757923592191   -1.89790976633330
O          -2.23374837040988    0.04554068319085    1.18247900313261
H          -3.07068122246120    0.24930189564588    1.60120679754268
O          -0.10987235630623    0.68598825643833   -2.61291562929595
H           0.66414474419766    0.13713040699576   -2.78236148974782
O           0.39224230139274   -2.51087281119840   -0.49976054269291
H           1.08615400935027   -1.86239050480376   -0.73580902903330
O          -0.56599695467532    1.98855405959307    1.62090641354452
H          -1.64117296444147    0.83695380368647    1.34736358979888
H           0.16648481109573    1.51556547313615    2.04412398171592
H          -0.18744792373616    2.18579611973810    0.74020705007861
O           0.04374573403262   -1.54602476179912    1.93527364233896
H           0.71564369729056   -0.84722909836931    1.81745036272251
H          -0.81306986186137   -1.10311689484303    1.87377355191332
H           0.30605816375300   -2.41236372249105    0.47823731252293
N          -1.59015500164530   -1.02642641724719   -1.24766285978969
H          -1.94425669556926   -0.59261073835785   -0.37354600313008
H          -2.34288578703241   -1.46845150322111   -1.76305458775439
H          -1.09902700368260   -0.29225846980690   -1.84192582298947
H          -0.81860764669644   -1.74755840597052   -0.97154841346806
