    26
        -50.44023253  Gyration_radius:  2.54301829295 Dipole_moment: 6.123
 S          -1.64062474185721   -0.78030017160013    1.74092054337591
O          -0.52274683043321    0.12210223050366    1.69690054202756
O          -2.55734320056374   -0.62643135520455    2.81073276070932
O          -2.36997232174372   -0.67473722268317    0.35666560211476
O          -1.13513125241084   -2.24051573084771    1.69743372679385
H          -0.66965031536255   -2.34776261012450    0.81596629926138
H          -2.17934368597911    0.23249008910223    0.00539556394528
O          -0.05728813727608   -2.46448523861107   -0.63643774446287
H          -0.63102655180199   -3.06330792245172   -1.11867472606305
O          -1.84673343412546    1.72659684014193   -0.52390104588109
H          -2.49553744683023    2.27434603631195   -0.07835757847888
O           2.19061560357371    0.91998825795184   -1.05408458791847
H           3.06047247217655    0.88039860824943   -1.45243665894293
O          -0.13882987204119   -0.19080898710625   -1.97006393954410
H          -0.09633586203710   -1.60047427136609   -1.13018494962391
H          -0.83832178918249    0.40340083959200   -1.67954578641715
H           0.70435661438140    0.24475925405898   -1.74229885522629
O           0.51549251775148    2.90053626703159   -0.24185098507974
H           1.17992993319087    2.20528146903500   -0.40805178034355
H           0.63486046457141    3.55916794690479   -0.92898192139159
H          -0.96283878715568    2.10424704072359   -0.27850700916900
N           2.01822662768406   -0.79958579747487    0.90003481050182
H           2.69107572513200   -0.90163279712860    1.64865079411893
H           1.79697679694954   -1.72269922343726    0.54512136690315
H           1.15711252308061   -0.42450069432038    1.30509114620714
H           2.19260494031184    0.26392714274588   -0.27953557741898
