    26
        -50.45788902  Gyration_radius:  2.41149411451 Dipole_moment: 7.658
 S          -2.14514798477014   -0.58520855691678    0.44689574145795
O          -1.21979229007071    0.23786316574900    1.28289215562033
O          -3.47909116746802   -0.08847233765386    0.47367865016908
O          -1.56889366115626   -0.44246031042813   -1.02335824656517
O          -1.93806618060767   -1.99130323993096    0.74212581450015
H          -0.66034764819521   -2.32912149332342   -0.08190477243977
H          -1.50889562778824    0.50841354649506   -1.26504463347830
O           0.25479476714410   -2.49908286700964   -0.45706809161194
H           0.20972367024498   -3.35363217280368   -0.88747485453195
O          -0.95434390361949    2.01763771441897   -1.71075706826923
H          -1.69476144419611    2.60175839440202   -1.88026888754760
O           2.39639895095461    0.91053595116461    0.35304982180554
H           3.28811235551411    1.17683646912923    0.12756025615156
O           1.19450066807931   -0.12061478769810   -1.72313962491010
H           0.73824067516329   -0.92939305039614   -1.43287788474240
H           0.50218652649568    0.48526097350662   -2.01208566011756
H           1.98702912519063    0.55570353872977   -0.48694128388896
O           0.05844344135348    2.48863155539493    0.65464270789686
H          -0.50346653586766    1.78274005009970    1.03403051472890
H           0.95721383517085    2.12835119649062    0.65521147010293
H          -0.54378828775062    2.32681856196850   -0.85651545877034
N           0.95765909597507   -0.99312166156562    1.63492365210241
H           1.10192000226150   -1.35002215392868    2.57200115861469
H           0.91325132581179   -1.75612953775156    0.93270064337394
H          -0.02480990612127   -0.47494720917489    1.55233695874381
H           1.68193017824283   -0.30704172895589    1.35538690160206
