    26
        -50.45283844  Gyration_radius:  2.4522700011 Dipole_moment: 5.083
 S           1.53667978089751    1.39786147760208    0.00810624558119
O           0.42746942884698    1.90193475703584   -0.77016019906739
O           1.88980672145663    2.18394894330155    1.14085986021318
O           1.18001795767343   -0.04254463165477    0.48014358027460
O           2.73589975680265    1.15143733781106   -0.90386870732971
H           2.48602048429896    0.38289310336120   -1.53272539100058
H           0.70693687710657    0.10007045797886    1.37127789854286
O          -0.03317380424163    0.66363239674003    2.58334634183414
H           0.54923896607160    1.41579511294400    2.74138562743011
O           1.97297739528916   -0.70012598389161   -2.46686657944033
H           2.24160341634363   -0.49064493820835   -3.36473742421660
O          -2.26143656306346   -0.92551628673963   -0.35709457469413
H          -3.10994613765847   -1.36582719849573   -0.41859552291900
O          -0.53729846266782   -0.03305999066811   -2.34374113094640
H          -0.29732862391210    0.79773749865405   -1.89325424793738
H           0.98053963166399   -0.57953094523374   -2.44092874938509
H          -1.17361035101338   -0.46271099414882   -1.74842472791841
O          -1.74925742136614    1.52136163843918    0.82002388646876
H          -0.81239415272327    1.02758573030022    2.07498932895178
H          -1.08532524458971    1.88305342989323    0.20961846575105
H          -2.08529707109458    0.71787801495603    0.38331849808302
N          -0.67430882173778   -2.20924759848855    1.37296438761260
H           0.21816610374938   -2.07727514415209    0.90984383005155
H          -0.66345099842511   -1.63053231123957    2.20552976840860
H          -1.70103144729560   -1.45106903090627    0.27670925155864
H          -0.74149743038562   -3.17710484519020    1.66228026409253
