    26
        -50.47071357  Gyration_radius:  2.41578406562 Dipole_moment: 4.143
 S           1.41585518999658   -0.37986536832795    1.39990674887343
O           0.25399436052083   -1.12364555091711    1.85695813440922
O           1.91829893370893   -0.79791329856211    0.11339648654238
O           1.18136104220736    1.06492134765439    1.45185919549975
O           2.56553028560462   -0.67961362998265    2.44639000867016
H           2.11016999721598   -0.59978253436028    3.27749491705903
H           1.61175070177858    1.64430113722831   -0.02904730188558
O           1.85098174505423    1.70859212687320   -0.98274392617095
H           2.45884953310912    0.96958970381791   -1.09911760264679
O           0.40190776755195   -1.76756768859772   -1.84992351068424
H           1.11108003510597   -1.58548874361249   -1.20051182792750
O          -2.39105376707021    0.73399544861968   -0.36531186459162
H          -3.25168175391674    1.15382518185452   -0.38485917322369
O          -1.37075394066999    0.99380781579313    2.00967412246755
H          -0.46045680429842    1.31472552325401    1.84703149544232
H          -2.02558267193349    0.89354747480949    0.55428632537204
H          -1.20963653187029    0.06850897612595    2.24834544035656
O          -1.49046919720462   -1.97853497769713   -0.01798249952127
H          -2.00192707227573   -1.16735938563265   -0.13805967913851
H          -0.34697304478270   -2.08609088877092   -1.29192610704088
H          -0.87620857155944   -1.80146712309777    0.72028054734319
N          -0.30692757880107    0.70438560614600   -2.13274018289369
H          -1.13728327950679    0.81631092716089   -1.51976084330957
H           0.52487847729233    1.21801259010918   -1.71134004788364
H          -0.03336033208511   -0.35234091579617   -2.13145589970229
H          -0.50234351318047    1.03514620590255   -3.07084294541681
