    26
        -50.46846767  Gyration_radius:  2.39953633023 Dipole_moment: 5.641
 S          -0.80471450412942   -1.11470661856845   -1.19292512391079
O          -1.65215261269648   -0.61273784315857   -0.08382318998500
O          -1.00544009473609   -2.51906398160591   -1.42703432254075
O          -1.22720088289924   -0.31663991260202   -2.46313756675114
O           0.58936173910339   -0.79127638555651   -0.91171932514267
H           1.62443648122544   -2.84415920185427   -0.18207141287510
H          -0.93565522437783    0.61397853581705   -2.30809270915351
O           0.87831063830434   -3.21207930258830    0.30102198801996
H           0.13459518513937   -3.15286423383451   -0.34309984790328
O          -0.57854431051636    2.20048406998730   -1.88570683594458
H          -1.17123652801875    2.76711836040266   -2.38262481293924
O           1.10028878786814    1.21891280504434    1.87964349710490
H           1.77382301925105    1.58888996757154    2.45154212221386
O           1.85277930552505    1.46307222251367   -0.59611781029744
H           1.50754529513493    0.56626056173235   -0.80933071365375
H           1.30081125774862    2.05158545033572   -1.12424162800968
H           1.43670282538456    1.34363153243191    0.94188809430847
O          -1.36491643863933    1.92480665530296    0.58874201535910
H          -1.62868569433037    1.00043696214227    0.38690247610725
H          -0.60250709876608    1.85212156508529    1.17922408383438
H          -0.90157917926601    2.21228884034544   -0.94108551110647
N          -0.05364772521575   -1.25268364126040    1.82374665845904
H           0.45422139605571   -2.04773882566705    1.33411054767084
H          -0.82991085654285   -0.99452110920835    1.12610339501674
H          -0.43482595417053   -1.54485798590592    2.71760274445773
H           0.53814117343908   -0.40025848659533    1.92048316769102
