    26
        -50.44803308  Gyration_radius:  2.47703623136 Dipole_moment: 8.068
 S           0.53895337331547   -2.12454412091001   -0.45340019726342
O          -0.11146658410881   -1.70112959222493    0.76688270971667
O           0.27354725633287   -3.43837436209480   -0.90136789802378
O           0.19976781813762   -1.06940751562761   -1.55641300057836
O           2.05691921909088   -1.90748071646440   -0.30991652079004
H           2.24246769749208   -0.98854855377450    0.04890466347949
H          -0.79124830683831   -1.12769668247406   -1.76215512828541
O          -1.17108782381683    1.89523765938758    1.16711924728569
H          -1.61554877236034    2.45886053015792    1.80187091829198
O          -2.31712504999619   -1.03235046066534   -1.90534738499247
H          -2.65840975902425   -0.30604817508837   -2.43132770094200
O           2.60120324256295    0.49195941539421    0.48850863108621
H           3.49234730691140    0.68276494194052    0.19065454028418
O           0.56681422799490    0.33798512245195    2.39762304057456
H           0.28996412967926   -0.49866195158201    1.98122390290739
H           1.44756120173214    0.50757655027775    2.04104335854519
H          -0.51423714309936    1.36074223338258    1.68927354942010
O          -2.51996234489906   -0.44103619663548    0.61233626906788
H          -1.79554504132090   -1.03923973290875    0.86127115130222
H          -2.16193251503551    0.45543776149922    0.75823177389573
H          -2.55685261130001   -0.83695910821442   -0.95360630742700
N           0.85553354536658    1.75675787006734   -0.97421273080532
H           0.55520742725374    0.96597575472931   -1.53520040483286
H           0.08555868337648    2.00495054030191   -0.35774609797577
H           1.96647132119101    1.05316984721151   -0.07789805347550
H           1.04109952136928    2.54005895185420   -1.58635233046849
