    26
        -50.46306753  Gyration_radius:  2.54515166514 Dipole_moment: 3.898
 S          -1.42083945221508   -1.60146201390572   -0.69487516680048
O          -1.64629358795013   -1.72515955185298    0.74483531443452
O          -1.19248915821644   -0.22421955759401   -1.08605855626693
O          -0.38504486509718   -2.50590197881266   -1.15212462219209
O          -2.76084226162584   -2.05051919784191   -1.40385955618533
H          -2.71964282233487   -2.99519998175440   -1.29993215877246
H           1.20305111074914   -2.20826335766281   -0.70120380968466
O           1.98698023229339   -1.81747004867880   -0.24990469855265
H           2.08648978373956   -0.93819942327336   -0.64431264321304
O           0.29043388638275    3.21388446459576   -1.48152021366335
H          -0.13058116848539    3.36341328286637   -2.32877906932979
O           0.87519000516588    1.38627678820120    1.62251395227966
H           1.45185126121394    2.10660178313189    1.87948766308027
O           1.24711893717761    0.77572766059853   -0.90649828625380
H           0.37769720533751    0.34845137991409   -1.07346706644961
H           1.13542748706354    1.68012624658058   -1.27004950199013
H           1.07377213285936    1.19839378231805    0.66150006913811
O          -1.51577920974748    2.14537206450624    0.19830748024515
H          -0.43683239463770    2.97668518546946   -0.85838203494829
H          -1.60294737212279    1.29913223135169   -0.27667308930680
H          -0.95679589085028    1.95217437941074    0.96161705250824
N           0.61685272400540   -1.28069499244892    1.90612546925873
H           1.29703530240277   -1.56260307208246    1.12280199065701
H           0.78165315269761   -1.79820147591554    2.76207944451978
H           0.70645378576059   -0.25639530426809    2.05208566932089
H          -0.36191880361036   -1.48194928288188    1.51628637800778
