    26
        -50.45123060  Gyration_radius:  2.47064145286 Dipole_moment: 4.662
 S          -0.11759103427272   -2.39122670195141    0.12771154108250
O          -0.63739529785174   -1.37670498820238   -0.76226063952955
O          -0.07343892344917   -3.71050765198940   -0.38358455851983
O           1.28874044560369   -1.92412915145383    0.60934988590915
O          -0.91290250753768   -2.35652153417436    1.44476472931703
H          -0.73863492563491   -1.44616721366235    1.83306193456744
H           1.73008188605480   -1.31555515539919   -0.05083948210771
O          -0.34215754240097   -0.04861767681808    2.41809272501642
H           0.15178693537781   -0.21524536201555    3.22342721482906
O           2.43890394516629   -0.29578235396293   -1.03654960378622
H           3.10882208368504   -0.72830547616472   -1.56816574771604
O          -0.51952082928773    2.44160565417617   -0.85888521473430
H          -0.85848256812102    3.33457961004544   -0.92385312700659
O           1.26856946740812    1.38339651475881    0.92338307250487
H           0.26929372281039    0.48384459286207    1.83423972577563
H           1.87768224684539    0.86461754497957    0.38403090913397
H           0.70141934831539    1.86773226526032    0.29426135730270
O           0.42217466328846    0.41529834048033   -2.47155768590808
H           1.71701432289649    0.01373355624559   -1.67201985476034
H          -0.12443553564611   -0.28130476434123   -2.06782770632635
H           0.10775031355356    1.24514604744786   -2.07189602618785
N          -2.26670864149981    0.77329624840421    0.20376189890390
H          -1.25220179594878    1.87199687393517   -0.47156654427451
H          -1.84386564846175   -0.07168659002194   -0.18078008379380
H          -2.13461909764473    0.73132724761618    1.20774682791952
H          -3.26028502324889    0.73518013394850    0.01595444240171
