    26
        -50.45123049  Gyration_radius:  2.47039266628 Dipole_moment: 4.657
 S          -1.92445799442237   -1.07828889727753    0.93696297962045
O          -1.04611714361062   -0.00259503985665    1.34018553072459
O          -3.18442294994940   -1.13288257573203    1.57986481200876
O          -2.08257216403509   -1.00668861427988   -0.61160508322197
O          -1.18376514375578   -2.41739409526736    1.10157556454642
H          -0.40541492792038   -2.36723578840152    0.46791464741355
H          -1.94623073635921   -0.07937517131975   -0.96165111333801
O           0.72541450415079   -2.25174078324455   -0.60941225322565
H           0.54703110929483   -2.92267561767438   -1.27144761973150
O          -1.67345397019719    1.36017684824720   -1.56802899147637
H          -2.49102379155014    1.81524146942517   -1.77535619539662
O           2.09044542523441    1.60483934800383   -0.13581749896514
H           2.98993353553158    1.93192737378689   -0.15786429017336
O           0.78942189285361    0.00870099981701   -1.93816446573146
H           0.73633344460435   -1.38355076132434   -1.10370241148878
H          -0.07320033833746    0.42366166541515   -2.05944714039175
H           1.31080365193273    0.63060224057252   -1.39619754048857
O          -0.46850162268258    2.46344873162824    0.42294096130410
H          -0.69355709253972    1.70709974928149    0.99240683660881
H           0.48039850618507    2.36145407718584    0.23260476242913
H          -1.22626568114103    1.88519380135360   -0.82982750443293
N           1.78375408347037   -0.39335500705103    1.56097621171704
H           2.18038153038731   -0.46713716860669    2.48892857000104
H           1.93387478458336   -1.27462499360017    1.08342794859097
H           0.77433802680068   -0.28503925876220    1.66076308816693
H           2.05685308151861    0.87023747787797    0.54997019496723
