    26
        -50.45123059  Gyration_radius:  2.47076074285 Dipole_moment: 4.667
 S          -0.12982390733726    1.82986258280876   -1.54402836276250
O          -0.15666763540104    1.68567153714774   -0.10535587975596
O          -0.65072651334451    3.03981277762081   -2.06223071786765
O           1.31024621927764    1.61291376764725   -2.04185000687798
O          -0.85307341173529    0.59383744816165   -2.15822566994823
H          -1.52936506924331    0.20382349784930   -1.53232903715130
H           1.53384709595281    0.66581070627556   -1.79105155399532
O           0.16750345712991   -1.24867371433655    2.32072248742520
H           0.50030360935985   -1.74512276926604    3.06864699491910
O          -2.56362524426830   -0.48677934644746   -0.54901954144153
H          -3.46618176847040   -0.24473625025093   -0.76186137922134
O           1.77055464082533   -0.84528755178656   -1.45445065060604
H           1.87362101747360   -1.30256717477824   -2.29146386516777
O          -0.22460128563986   -2.06177419054823   -0.26319876587454
H          -0.12153561611333   -1.88931003553672    0.69169299732304
H          -1.09620548269329   -1.72210380227090   -0.49976018029049
H           1.00136629801922   -1.29131810021657   -0.99867411850074
O          -1.81921606906965    0.55330247974672    1.68627633872975
H          -1.22392380067023   -0.10504045217892    2.08544230797839
H          -1.23225000566250    1.17084865286192    1.21600199510313
H          -2.36650029416356   -0.10370275561119    0.36483460994264
N           1.97022054612038    0.39834354458836    1.31936554941045
H           1.29860887266068    1.01022796376317    0.85552310483474
H           2.61356200933093    0.98187455338016    1.83853408757224
H           0.90313028149362   -0.63193159186708    2.02119413623963
H           2.49073208616135   -0.06798177675628    0.58526507997806
