    26
        -50.44928170  Gyration_radius:  2.47056438922 Dipole_moment: 7.775
 S          -1.33565308175943    0.56414985017199   -1.71076241438780
O           0.10977508474966    0.53911504011216   -1.79053702880423
O          -2.04747929996769    0.31948113575065   -2.90690031504785
O          -1.75796467089757   -0.43285275655147   -0.58477701088189
O          -1.77587848528001    1.90189046380151   -1.09262348324495
H          -1.21971094025292    2.11987660465677   -0.28134592996062
H          -1.52546240828022   -1.37617565612347   -0.87964334701088
O           1.86491217076401   -0.81696485991187    1.30248709484610
H           2.40640139473525   -1.07259272350314    2.04962818586633
O          -0.30582088910644    2.57810966499989    0.91755719852593
H          -0.26283738005851    3.53538790444568    0.87403823348118
O          -0.96040076287821   -2.76624519273386   -1.18926327045329
H          -1.01387051586381   -3.39630863459604   -0.46752841127879
O           1.43959553448005   -1.77208122291263   -1.27265111898635
H           1.12024555862538   -0.93847703876580   -1.65878513651809
H           1.71050417137336   -1.54579580931360   -0.36733145919964
H           0.00539108678513   -2.53204185418243   -1.29678992963009
O           1.87054311985589    1.58191248226704   -0.04845384855329
H           1.40722184504522    1.27860986979977   -0.85009954620587
H           0.59414731426381    2.24212642597775    0.61150330551785
H           2.06806955536224    0.76648600914569    0.44643738131630
N          -0.57851320923799   -0.15015754976677    2.11472754363208
H           0.94827353586675   -0.62005952648852    1.65309964337474
H          -0.55534530738978    0.86170020572452    2.18957439298721
H          -1.15573242625902   -0.35794025746779    1.30405438783277
H          -1.05041097464086   -0.51115258434941    2.93438487278951
