    26
        -50.44803304  Gyration_radius:  2.47706351599 Dipole_moment: 8.066
 S           2.20790476799747    0.22333216744051   -0.29176042513642
O           1.23843202987593    1.22645572084415   -0.67288640310131
O           3.49978299809620    0.67713259815838    0.05819058859358
O           1.57511577418758   -0.62832568456681    0.85688974205720
O           2.29913233716922   -0.83149070129647   -1.41015055025332
H           1.37919926763145   -1.12121840353015   -1.68828482045598
H           1.47998907654725   -0.03982755422866    1.67701655110864
O          -2.39946265006445    0.73201099048638    0.18577381296339
H          -3.23830759947092    1.18716502297127    0.10005394794629
O          -0.03977847127664   -1.71220696531588   -2.07711805335064
H           0.09390652771327   -2.58459353801491   -2.45175358432931
O           1.10396059125237    0.89387996043423    2.83636619441308
H           0.56026533893940    0.52191037929603    3.53394216281029
O          -0.38566274555770    2.29020203560542    1.23601915803079
H          -1.16979332537232    1.76297048589133    0.99055852422512
H           0.52980075401792    1.54599234937290    2.33977336713383
H           0.22820923205976    2.18034762909320    0.49057363551231
O          -1.04421532566944    0.89504018249902   -2.07164960976830
H          -1.95684433525923    0.80556939842529   -0.70215961311662
H          -0.19834395309136    1.18011221198046   -1.68015844158131
H          -0.87241921547849    0.00370660298252   -2.39970724360758
N          -1.04752970047760   -1.88837459168981    0.31869401189963
H          -1.66661776591426   -1.08950185493025    0.43283134256963
H          -0.48525216704649   -1.83817999946625   -1.16918253383652
H          -0.19645546919417   -1.69164622864054    0.83567196245670
H          -1.49501599161645   -2.70046220381452    0.72245628681114
