    26
        -50.44803306  Gyration_radius:  2.47702328687 Dipole_moment: 8.067
 S          -2.01435324164270   -0.56929280582142   -0.79234438688136
O          -1.57319505552791    0.79699502383731   -0.61932978431206
O          -2.95788360961947   -0.81628293379185   -1.81516072275783
O          -0.73854860123877   -1.45542378500942   -0.97124461909039
O          -2.54030692702545   -1.09734871972508    0.55542205159699
H          -1.88883266463994   -0.88363029121861    1.28854542710052
H          -0.30183534074874   -1.21453902858273   -1.85395865078795
O          -0.84051052710666   -0.69034163369010    2.46241265851718
H          -1.02357839620690   -1.34760268092256    3.13602845446700
O           0.49983424387635   -0.69297657363775   -3.05514386011185
H           1.38420459160006   -1.04607975012183   -3.17280578424521
O           1.97019245867527    1.49272173886767    0.46471860251126
H           2.54694890256058    2.23745891544090    0.64038138084567
O           0.64753193944341    1.64765854554515   -1.94613077555911
H           0.60522463045596    0.26245464111011   -2.77685080218837
H          -0.24859043835712    1.58251964322962   -1.57562763076237
H           1.23976784815264    1.59606139710235   -1.17168870395821
O          -0.40199758449142    1.91026901689444    1.54020338529001
H          -0.92952440899212    1.68050439423869    0.75340741498292
H          -0.58825472581379    1.20507457011832    2.17238352019058
H           1.11010346389405    1.70021189102099    0.91978030576953
N           1.32236247359854   -1.30470572245712    1.14680215056788
H           0.87195527678993   -1.65607508881037    0.30779679773803
H           0.04054114306182   -0.94855786335281    2.01987184953706
H           2.03362878081957   -1.96282259377377    1.43618029265508
H           1.77511575847403   -0.42625032647550    0.90635142892166
