    26
        -50.45708368  Gyration_radius:  2.51343891906 Dipole_moment: 8.079
 S          -0.62397934567225    0.61215155297624    2.07662946116716
O          -0.78029910995409    1.91909802632732    1.42820268609668
O          -0.97095345414603   -0.47526517790267    1.20021629493735
O           0.70192335984783    0.47732114180894    2.66127884763775
O          -1.65381411076551    0.59587923247698    3.27528978967290
H          -1.35142943394685    1.31948175505593    3.81457660873532
H           1.67358447968848    0.11219001001566    1.48535383573992
O          -0.89819791266869   -2.79760262201652   -0.25422753710864
H          -0.86786280158342   -2.23111167019682    0.53071385711521
O          -0.13466466443247    0.29597632582022   -2.54054828651308
H           0.02269055973240    0.26334147526460   -3.48444948077223
O           2.27030813251392    0.01754204818111    0.68940725754716
H           3.15253329092351   -0.12663522138398    1.03642118846413
O          -2.44643152090856   -0.65726232968630   -1.13698010788610
H          -2.11129756774094   -0.46711983417502   -0.24711845811664
H          -1.81661375368425   -0.24344871468366   -1.74033088125261
H          -1.62773774515545   -2.41808266432826   -0.77180229194490
O           1.16984671155916   -1.58587958814139   -1.37671608436356
H           0.35856358769764   -0.49409000478551   -2.14089387797028
H           1.58999114265895   -1.17350260084249   -0.60809592305391
H           0.45933786608877   -2.16893702583433   -1.00481836909557
N           0.78718942705476    1.86561314392177   -0.59799182924582
H           1.54073210683785    1.25341717719191   -0.22188194968373
H           0.06204355472879    1.94743129099570    0.20386353642571
H           1.14117847500698    2.78126124546952   -0.85358160384268
H           0.35335874631853    1.37823302847204   -1.42251670269007
