    26
        -50.45242133  Gyration_radius:  2.39930013233 Dipole_moment: 9.216
 S          -0.06694513082869   -1.66817690188265   -0.79117854025391
O          -0.59554918041924   -0.52542510356082   -0.05244268555193
O          -0.50999026086959   -1.70605183859362   -2.15421589889469
O           1.54357352114918   -1.35089838565705   -0.83976430325051
O          -0.14900393181483   -2.88583674450616   -0.02533850260275
H          -0.16465867952995   -2.40040360723059    1.50355914718173
H           1.61312527185354   -0.63604767630546   -1.48551784804225
O          -1.67925905074320    0.70587149059197   -2.66629217284660
H          -1.41998353584991   -0.22502385916811   -2.52839822118821
O           0.02652467167342   -2.09116489303713    2.43014922196825
H           0.40198911414609   -2.85131983275439    2.87918719198353
O           0.08429208750345    2.25189162628501    1.11570562617517
H          -0.21817817994751    2.71520363434294    1.89825447339656
O          -2.13059390244788    1.62384418754796   -0.13229365525227
H          -2.09584739793715    1.52621714736168   -1.10623481566357
H          -2.03938630252886    0.70857654794085    0.16770803430502
H          -0.75015150254876    2.05327017251011    0.59387649139307
O           0.88408843232088    1.17386927087385   -1.48400807136442
H          -0.88822549763706    1.13189053729293   -3.00894934376368
H           0.96593216387615    2.01039976594003   -1.01873883147285
H           0.17615599280186    0.68561747188382   -1.01703542671395
N           1.42647912045927   -0.03419067083414    1.56181243611344
H           0.83296496836041   -0.76484873447443    2.05738436292289
H           2.27869962287297    0.17757672433343    2.07247339014943
H           1.62745504345629   -0.46539740088908    0.63538894183019
H           0.84649255260015    0.84055709187500    1.39490898942286
