    26
        -50.45242137  Gyration_radius:  2.39932609498 Dipole_moment: 9.212
 S          -1.67888388545124    0.70331194304816    0.31557856189759
O          -0.22334464250321    0.64454349534239    0.41013944470147
O          -2.13894692682918    1.68900873985233   -0.61844153654226
O          -2.05624843685532   -0.75703145105949   -0.33371881486431
O          -2.30215103028350    0.66740282524401    1.61417052138373
H          -1.23028776244814   -0.06596284696538    2.55576890682579
H          -1.78478903953431   -0.67045195805223   -1.25659507118189
O           2.28990135331285   -0.96456867582033   -0.38642054363062
H           3.12538853865227   -1.11834355818529    0.05730096620690
O           0.04415491795721    2.50470235161528   -2.03773337913698
H          -0.75149606908249    2.38479717714348   -1.48515530670504
O          -0.64486294170941   -0.69036631528501    3.06389931507976
H          -1.20929775332108   -1.07701338329800    3.73647708359677
O          -0.03350351986081   -0.35603809741259   -2.05755575532574
H           0.82035356229428   -0.78035729062513   -2.17503300658638
H           0.04420365071113    0.15774231784134   -1.22833949498092
H          -0.06170618498440    1.87713592449787   -2.75857780738528
O           2.07550695218880    1.64507813053618   -0.42421903751684
H           1.42741756399230    1.60154689747095    0.29278354533608
H           2.21732574537387    0.03395205947579   -0.46248124254181
H           1.55575835133971    2.05167469937992   -1.14788133634982
N           0.11381474370172   -1.92768711550077    0.86412459460738
H          -0.03668864912073   -1.48384298651331    1.81906710440939
H           0.97335819799784   -1.50200693662862    0.40646070218405
H           0.18533923367354   -2.93951228170899    0.91894104414877
H          -0.72031595916787   -1.62771367434647    0.31744056236608
