    26
        -50.45242129  Gyration_radius:  2.39939495013 Dipole_moment: 9.217
 S          -0.31533999504803   -1.08388329667146   -1.46215181586266
O          -0.67547052250942   -0.32361016192532   -0.26915178792007
O          -0.67507341855827   -0.41733364858924   -2.67949300135773
O           1.32580902403375   -1.08491377359244   -1.40599446008671
O          -0.65904288360319   -2.47727059503647   -1.33373503160422
H          -0.67865960740338   -2.74435866069530    0.24784422476634
H           1.56032302434491   -0.18229731963306   -1.65695176834382
O          -0.49123738214955   -2.93003563539334    1.20761207699549
H          -0.28543248938634   -3.86614244218917    1.24970028229361
O          -1.36182989245676    2.13593254876677   -2.00367024552787
H          -1.28177638131147    1.21353997440408   -2.31268503435435
O           0.41521470170255    1.44258512436377    2.01701756002837
H           0.15294848548159    1.54816442199106    2.93276548216318
O           1.16662397254435    1.53116556091271   -0.80901640064799
H           0.35629319692240    1.02527282096504   -0.59660204959630
H          -0.48783795817566    2.51464461526473   -2.13515316655844
H           1.36754103178037    2.03464653113984   -0.01594111031721
O          -1.79611859741683    1.87244854672100    0.68160763977016
H          -0.40795832521895    1.66102960963266    1.48527819743770
H          -1.72031645609528    2.22229405427673   -0.23000547924537
H          -1.88743447442222    0.92158136917901    0.52829640372813
N           1.30104152893571   -1.00190735367776    1.33378495094551
H           1.47714414916504   -0.99585080809788    0.30733540004106
H           0.55885931682921   -1.75358793736052    1.45852065991558
H           2.14536086595038   -1.20604680807302    1.86042828741838
H           0.89636909602637   -0.05606672664115    1.60036019590037
