    26
        -50.44023262  Gyration_radius:  2.54309313237 Dipole_moment: 6.124
 S          -1.57709531313274   -1.15113809625959   -1.58687366646698
O          -1.66798801834370   -0.54348007478451   -0.28745792048401
O          -2.78353124891895   -1.31553746561689   -2.31225378112310
O          -0.53527920200859   -0.31760351341590   -2.41099322316077
O          -0.84803815794928   -2.50984561608878   -1.47827002873366
H           0.07706757794768   -2.30287334042746   -1.15182499107776
H          -0.54793695348827    0.59999798728702   -2.03607272590669
O           1.54541782204917   -1.87962970707364   -0.74839151279946
H           2.09780470970783   -2.08958333812565   -1.50409537307429
O          -0.60700868224658    2.08618083886291   -1.39491159072025
H          -1.35721908172823    2.49252393621484   -1.83264890183416
O           1.02081387220898    0.87372234596616    2.22555493912773
H           1.57108449174315    0.85633345881888    3.00899668768780
O           1.80431631812710    0.72078931676190   -0.39425247975212
H           1.59976616574472    0.85081040213677    0.55114223946117
H           1.63028885720448   -0.89567064578969   -0.61992531898778
H           1.16220525329656    1.24374059683443   -0.88519003878798
O          -0.84552146280665    2.56476291145745    1.20320524976372
H          -0.28080789874451    1.90473373793986    1.64816874458293
H          -0.47288832464028    3.42404477824159    1.41049105164946
H          -0.79633363346135    2.14991726438851   -0.42313235827645
N          -0.06259215746683   -1.46734997748237    1.83645344818487
H           0.58055581347934   -2.08241758786629    1.35151675496480
H           0.59540151963216   -0.04434252487677    2.14564243823880
H          -0.75240028716608   -1.15868157422008    1.14718490416320
H          -0.55008199903377   -2.00940410288438    2.53793745335829
