    26
        -50.46824847  Gyration_radius:  2.38822901129 Dipole_moment: 4.288
 S           1.28610598858806    0.02240342127045   -0.13384076398598
O           1.68229395167143    0.47230709539747   -1.44307425017156
O           2.33117382129165   -0.64028964180977    0.63469567793425
O           0.65090911365247    1.07894629379043    0.66783262396261
O           0.17910799227091   -1.08286179009780   -0.31058835354746
O           0.28821473525989   -0.40801763551086   -3.54897295671604
H           0.72106981391763   -1.18209763606116   -3.91031085626603
H           0.88468108095971   -0.06387104602644   -2.85252004590451
O          -1.04904968264512   -1.84355993996110    2.08521124814729
H          -1.59061458149222   -1.04408287986649    1.87094463409841
H          -0.71194568538031   -2.13321878865725    1.22726199646175
O          -0.33015441262495    2.45721663472964   -1.39630071878692
H           0.36628383931709    2.39090575136408   -2.05583900599391
H           0.08128060755676    2.14741200422826   -0.56757492870367
O          -1.92217187463003    0.49716094150793    1.22093120009283
H          -2.35806456630693    0.44672158819838    0.36462555646435
H          -1.02429155126718    0.83657511129076    1.03566635832691
O          -1.59031085906720    0.13968795863996   -1.69871275653346
H          -1.29732374698029    1.08229544337142   -1.62949902690280
H          -1.24543361393628   -0.14590892504864   -2.56372956381883
H          -0.56531105471963   -0.65621674238216   -0.85279595826442
N           1.05077314242188   -0.47778570753364    2.81863912459406
H           1.50126707790428   -0.62441818917342    3.71611503518386
H           0.19344559153547   -1.11440446722364    2.66713280497633
H           0.75269944232691    0.49199069777698    2.68643768108744
H           1.71536541028475   -0.64688956055360    1.96826525539222
