    26
        -50.44810402  Gyration_radius:  2.52512257741 Dipole_moment: 6.945
 S          -1.21282393356002   -0.24561339435296   -2.10467541445477
O           0.20096300279924   -0.01475386949767   -2.29594603111766
O          -1.74339434695665   -1.45299769183678   -2.62244699039560
O          -1.47516978480373   -0.19669142181316   -0.55160260214077
O          -1.99416223787122    0.97778511185700   -2.57181614533200
H          -1.37803687956459    1.77544695781209   -2.37421546077444
H          -1.12865635998810   -1.04202603601160   -0.12597717588645
O          -0.54514307534986   -2.24596053076163    0.67436726718678
H          -1.23435536105747   -2.89259514354077    0.83567098863909
O          -0.19507462799907    2.64189260271036   -1.97465122299784
H           0.45138651569036    1.96942814587397   -2.23102671865275
O           1.98487281378163    0.61264829072767    1.24503076421652
H           2.84901759685448    1.02210752101022    1.18792904027739
O           1.80687357978640   -1.28354829186703   -0.57198032069000
H           1.18435402907569   -1.93227282667456   -0.22304356128130
H           1.34311333060546   -0.85074219231414   -1.31404087281531
H           1.97404999530236   -0.10687760847942    0.55855298117938
O          -0.26941806530524    2.03354471617146    0.61035634930186
H          -0.86087009025712    1.29807856598740    0.40104377626190
H           0.57434201282575    1.62262794957260    0.87898474391594
H          -0.20650140978807    2.63586507333875   -0.98560020766275
N          -0.02446988157943   -0.82519504492534    2.81743411978309
H           0.76064431040130   -0.27382430004788    2.47522826096521
H          -0.34980177161353   -1.77149845654839    1.55118912404494
H           0.26275216285848   -1.27462059451680    3.67745245450987
H          -0.77449153427874   -0.18020755186286    3.03378283391498
