    26
        -50.44810397  Gyration_radius:  2.52538926518 Dipole_moment: 6.954
 S           0.40822428618970    1.68177554556801   -1.72249100952243
O           0.86117857841605    0.36453438854817   -2.10775565800931
O          -0.57570630953011    2.28890629667156   -2.54139919493793
O          -0.15320731650435    1.55809625075831   -0.25542450652575
O           1.61449832095748    2.58747738775472   -1.49847930965136
H           2.35004485499163    1.96426084794403   -1.14435534379934
H          -1.04804380357805    1.09459671393418   -0.27624571331748
O           3.14227331999399    0.74421219931990   -0.70400295881529
H           2.69477161434483    0.16124423945309   -1.33308425995283
O           0.34032939878620   -2.20960539378916    0.93235479650415
H           0.84027627422415   -3.02326601083217    0.85710116747544
O          -2.38366697690980    0.30078747831864   -0.15241505092660
H          -3.12129322206251    0.91190620549351   -0.11243366083718
O          -0.75120819902013   -1.64885633613266   -1.39627651411730
H          -0.13376248821823   -1.00592544132391   -1.79442772945607
H          -0.06790097621075   -2.05240214566495    0.03918966843230
H          -1.55339592741216   -1.14938987290263   -1.20362505110220
O           1.61653971737921    0.17014746385807    1.39379463420710
H           1.23927448905226   -0.72481829937915    1.29610974641867
H           2.76943244574654    0.51402973251882    0.18277059449697
H           0.94557593273549    0.77373826306305    1.04733868075378
N          -1.80960271426483   -0.68571052460385    2.20943280858790
H          -2.50802195010709   -1.18786850633396    2.74241286378826
H          -1.38829029885191    0.00733788105265    2.81558821685743
H          -1.07911007877639   -1.34648850617604    1.95002899606772
H          -2.24920899135364   -0.08871984711916    0.77629378739581
