    26
        -50.45123052  Gyration_radius:  2.47031625653 Dipole_moment: 4.655
 S          -1.11911036722335    1.69420083686617   -1.27295672046568
O          -0.63964281100536    1.57183950068455    0.08590646902147
O          -2.08821997412476    2.69899989692667   -1.50741669524791
O           0.08439049910609    1.88474916914661   -2.21306195106585
O          -1.63640999252547    0.29416488151974   -1.72122266182755
H          -1.93896369467783   -0.26095648553168   -0.94586010555666
H           0.62383258265087    1.04135339242753   -2.12397887845707
O           1.35633123211050   -0.33696558670926   -2.00345244325103
H           1.29691895542846   -0.75791296965212   -2.86345244243491
O          -2.36679777001661   -1.20093934461785    0.25768873785526
H          -3.31903671587730   -1.22764721819603    0.36255344274096
O           1.25282168173448   -1.11138406977339    2.03955869104391
H           1.93612019811959   -1.48194575002754    2.59841718551654
O           0.27157045747211   -2.04720636020976   -0.33742359802388
H          -0.68698140661282   -1.97101528307137   -0.25724414686524
H           0.93096229003157   -0.97507776953460   -1.36289101403383
H           0.63075214686718   -1.83572255901093    0.54494636788897
O          -1.24554863125636    0.03939507777433    2.21669311009544
H          -1.99393549507305   -0.76459134158708    1.08903798666266
H          -0.39619042608530   -0.41584565838091    2.35215336148684
H          -1.03792377506022    0.79168798056642    1.63535274463422
N           2.10295634297727    0.96451904401668    0.64895547045531
H           1.65023253703369   -0.31549399441541    1.57077590892476
H           2.46056951679189    0.65406189112563   -0.24714600532903
H           1.17609315370991    1.35280527597763    0.47342576075834
H           2.69520943549022    1.71492745368611    0.98064141546771
