    26
        -50.44131372  Gyration_radius:  2.68789169108 Dipole_moment: 5.665
 S           1.76762963827558   -2.09955819161761    0.05033236070850
O           2.28333863147625   -1.41730724577332    1.20823799501167
O           1.79975839480683   -3.51306442174942    0.04739763755918
O           0.29801781228571   -1.59300222045254   -0.16353003366450
O           2.47098660693282   -1.57166434090572   -1.22315800208046
H           2.36343675577023   -0.58135236341359   -1.26276645894200
H           0.01974909824136   -1.00902638339468    0.61749095690632
O          -2.61327795812242    1.55169708045405   -1.32762155060514
H          -3.15508014593360    1.68693613300950   -2.10588565454520
O           2.12463992838900    1.00963998508720   -1.25182072788988
H           2.90525739765068    1.48158913171874   -1.54725921366460
O          -0.47694295181008   -0.14632516754144    1.79230358789398
H          -0.44368340024347   -0.69452684805673    2.57821951640228
O          -0.41555393159563    0.23724472604818   -2.18216856160329
H          -1.79524581623804    1.11298303011991   -1.64600877912987
H           0.41958834841817    0.70330487138288   -2.04268858352244
H          -0.34249892448590   -0.57358106092061   -1.66216486940470
O           1.90564701441994    1.19827260695909    1.31101692946977
H           2.22247444889246    0.28031490946731    1.44374928744007
H           2.02733144668462    1.20382237259884   -0.26918701524634
H           0.97192768744669    1.15712525205854    1.55834491223144
N          -2.97222135213665    0.31794596809187    1.22324789738212
H          -3.52605174121102   -0.51605053767142    1.07331568753176
H          -3.47496480862284    0.91970819229955    1.86316346145071
H          -1.46144180335741    0.04668993431447    1.58952026408753
H          -2.90282036592801    0.80818457786985    0.32791898621955
