    26
        -50.44131411  Gyration_radius:  2.68824880875 Dipole_moment: 5.670
 S          -0.98560806078129   -0.56301560220064   -2.50008621024952
O           0.27379649262207   -0.01774773274266   -2.93474147890858
O          -1.54183359362982   -1.62305546357491   -3.25250084886035
O          -0.80415299013909   -1.00044993912667   -1.00416499158104
O          -2.02947398785910    0.57228985426909   -2.37156584125175
H          -1.66762108407843    1.27465415292452   -1.76354347993749
H           0.17000922559556   -0.91160169923191   -0.73685908705530
O           1.63866049101988   -0.83599421455768   -0.28011144619756
H           2.13988161441274   -1.42939876606259   -0.84225765817158
O          -1.00982519756724    2.34550870916523   -0.75906239359411
H          -1.19183780456400    3.24412496226544   -1.03972629399919
O          -0.29618763761350   -0.05061192060842    3.30565566544794
H          -0.89118817027428   -0.08636340651266    4.05550980454268
O           1.43063443089057    1.73024017511224   -1.32220004228748
H           1.75434952076243    1.08077117228438   -0.68324540842985
H           1.15621662844995    1.18541211121898   -2.08930672171805
H          -0.02498251660903    2.19469095325959   -0.90158956441953
O          -1.84968327572449    0.46814782781979    1.16016419714544
H          -1.69801067906625   -0.23518708375766    0.51557404420454
H          -0.85526757761692    0.18192898966872    2.53328394872601
H          -1.64266525974868    1.28852906202393    0.69289386859323
N           1.60584557137811   -1.82459056487835    2.12548574973229
H           2.48556310041412   -1.81539168860424    2.62586362218602
H           1.21791364761104   -2.75765022587652    2.18631733363706
H           0.96669183882687   -1.19158944686113    2.61300275060087
H           1.64877527340506   -1.22365023552658    0.66721046177295
