    26
        -50.46824849  Gyration_radius:  2.388148676 Dipole_moment: 4.293
 S           0.21348860373193   -0.29658015738398    1.23998668474080
O           0.02879234503940    1.11795892007174    0.88309574856188
O          -0.94856642527452   -0.87528199387659    1.86307984253293
O           0.45619578139702   -1.03840971398258   -0.12708707213316
O           1.46096467483518   -0.47796172629830    1.97000231707430
O           0.13958304359797    1.49481499329396   -1.78279534291164
H          -0.59262573160361    0.98238702794821   -2.13927154782904
H           0.02574189758323    1.46977468225691   -0.81207752279812
O          -2.37889781190471   -2.64117475542252    0.45246498413867
H          -2.08061917500478   -3.52651090102105    0.66306072096925
H          -1.90298320302187   -2.04185217001894    1.06360741680840
O          -2.61488658593893    0.98729155585722    0.54181551928293
H          -1.69448705897827    1.21874428596309    0.76842050383761
H          -2.89645894107631    0.38911529956135    1.23995341479183
O           2.41760395266744    0.15558898896562   -1.72511930691272
H           2.02483535647398   -0.67207324650129   -1.41803700623667
H           1.63849137188796    0.70809696352931   -1.98269713307712
O          -1.78201016467058   -0.70796287517475   -1.32445856849737
H          -2.21767865184663   -0.01422463757498   -0.76939841084690
H          -0.40132894980545   -0.93757236920299   -0.66060841016495
H          -2.18045557302178   -1.53905016005136   -1.00937399528070
N           2.69705164605594    1.27542737717762    0.61572312265263
H           1.94307373692276    1.96663540642549    0.63282148472896
H           3.58284646389142    1.66300728383141    0.92394760012924
H           2.32011111786320    0.48528705543770    1.26933318245400
H           2.74221826028053    0.85452487619798   -0.37638822595071
