    26
        -50.46788067  Gyration_radius:  2.39885409528 Dipole_moment: 5.650
 S          -1.69029874419114   -0.06589272131907   -0.63169810856542
O          -0.73829062406455   -0.96818147723738   -1.32148857454106
O          -2.95660146775928   -0.70198112622005   -0.38787588811730
O          -1.07503072288242    0.43298328277551    0.59333906332600
O          -1.90663242893651    1.15345279135531   -1.58004870987827
H          -1.04566444393101    1.63471561790619   -1.61913934790303
H          -2.11180146827741   -0.81011603603566    2.42273274820215
O           2.31923752441139   -0.38071490140754    0.82055795492993
H           3.24276862043919   -0.62912926847462    0.87748134505252
O           0.40894974796933    2.47531771892612   -1.54772694203087
H           0.22839822142646    3.39713881313707   -1.73907581092422
O          -2.17659265385684   -1.65029284146891    1.95930489917069
H          -2.62223319085418   -1.41533823697110    1.11193431517664
O           1.69155469522772    0.00134631114190   -1.68590649063878
H           0.80200318047426   -0.41593903653808   -1.69367656224050
H           1.51912591052083    0.93168501758744   -1.87902351709830
H           2.13480683941836   -0.21569979688088   -0.14973389906864
O           0.89926612010482    2.09277207139895    0.98430996769544
H           1.60187145517356    1.44292631279878    1.11787638425976
H           0.64685536400147    2.42816121737560   -0.57566673477328
H           0.07969255909430    1.55020006018866    0.99317797946548
N           0.17271247760476   -2.08446857793421    0.80824325977875
H           0.96494923131284   -1.46182928795941    1.06719476958253
H          -0.16380266406724   -1.74264187785556   -0.15446461439734
H           0.45558469685925   -3.05874000679390    0.78414564045719
H          -0.68082823521398   -1.93973402148610    1.42522685307054
