    26
        -50.45364645  Gyration_radius:  2.6616175708 Dipole_moment: 7.048
 S          -0.18916858562161   -1.96553693420663    1.87610810951085
O           1.21994527366799   -2.14412810159614    1.52028653106329
O          -0.85610644892483   -3.13543458493520    2.33835055860462
O          -0.14841577628407   -0.95408304588513    3.15233873634004
O          -0.87538770309962   -1.17985753708623    0.85634312519789
H          -0.70795695895015    0.37961831417370    1.15649018044747
H          -0.31641690312608   -1.56412020312817    3.86290321514703
O          -0.37125058080507    1.28381293195116    1.40199867095725
H          -0.58849285615966    1.38228452148957    2.33092779756470
O           1.42016520934588    0.48405626072540   -1.93516176811807
H           1.90880967853680    0.77887583759012   -2.70373587128730
O          -2.39504464749543    0.92658744433062   -2.28914740408825
H          -2.71828806116871    0.89551127585881   -3.18981135178287
O          -0.32892070334585    2.26407102299112   -1.24903576252258
H          -0.45555402537987    2.13147005157595   -0.29936484602948
H           0.74895269379099    1.20707543597983   -1.72631922410946
H          -1.15277275741163    1.92156155571029   -1.66126828812130
O          -0.87705753364548   -1.21969282315388   -1.84663211721901
H          -0.97058763329852   -1.34227271491241   -0.88566471853341
H          -1.94990395613073    0.05940429802261   -2.12496223305065
H           0.00382152125036   -0.84084828685867   -1.97283377442790
N           1.94821086669454    0.14179725708548    0.67779623696291
H           1.18345588557761    0.75504011659594    1.04492875230097
H           2.85953456827920    0.42213950153196    1.02271201632823
H           1.70083681408683   -0.87125789882992    1.00760054440108
H           1.90759260963606    0.18392630495618   -0.36484711555189
