    26
        -50.44928177  Gyration_radius:  2.47058391377 Dipole_moment: 7.773
 S          -0.76213910363196   -1.80434892209037    1.09197878573359
O           0.50193456330914   -1.16022816042865    1.38094142605024
O          -1.39984299095690   -2.47257765996809    2.16162612740228
O          -1.69898007369587   -0.72857481951565    0.45544477192808
O          -0.57156825429837   -2.76164845937210   -0.09659493130340
H          -0.04814973877761   -2.31600567923982   -0.83296589771845
H          -1.91334430048040   -0.02569373399783    1.15623682292229
O           1.14101421257552    2.05999645228094   -0.54442724064646
H           1.43091967745026    2.83681401347251   -1.02331367617416
O          -2.04480293672989    1.16690155346269    2.10864000426604
H          -2.44963833503514    1.94848584292350    1.72656931839996
O           0.86954488991308   -1.72004766974165   -1.96687525482849
H           1.36226203109790   -2.45788496508151   -2.33156825826433
O           0.53771286914188    1.45861559585738    2.10104037777052
H           0.80470841213630    1.80962705159585    1.23519156896375
H          -1.07722633755528    1.37936319109317    2.24256428837825
H           0.68265488788260    0.49865295308178    2.04221300097317
O           2.39225658300107   -0.38589751967329   -0.36559053961077
H           1.91041396819412   -0.71952896287768    0.41273051392368
H           1.52703970676973   -1.18552947097072   -1.42065417928806
H           2.13911873238925    0.55250862199962   -0.42973318307102
N          -0.75860802860083    0.78895459443654   -1.90475524680541
H          -1.41257408977066    1.21491297418538   -2.54953643963921
H          -0.26746031058072    0.05247756655353   -2.40108189443748
H           0.39926783829765    1.64458517019437   -1.07276497349200
H          -1.29451387213866    0.32607043178176   -1.17531527147440
