    26
        -50.46846772  Gyration_radius:  2.39950472366 Dipole_moment: 5.638
 S          -1.40304392391715   -0.92735701143265   -0.69572905812808
O          -1.71267787227559    0.00063798768180    0.41906816052708
O          -2.07332199183866   -2.19026804600636   -0.54362109052981
O          -1.90551041956714   -0.23236105229702   -1.99708567269600
O           0.04384638007008   -1.07551347423964   -0.80504552229491
H           0.57651884190593   -3.22523003134085    0.14777938027795
H          -1.31824299098905    0.55005533712867   -2.13048119912856
O          -0.07833997809534   -3.23178869401592    0.85249792189692
H          -0.91951838455461   -3.01313011567450    0.38777211630988
O          -0.39919923201783    1.95636574273368   -2.17922426465676
H          -0.90975084991470    2.61347154773212   -2.65545776148304
O           1.89884167240223    1.02043553722243    1.25704661164534
H           2.78603078879682    1.20640346588136    1.56678333381054
O           1.95853159656884    0.61453714844567   -1.30935455414009
H           1.97755459731935    0.87869621001332    0.26615578478206
H           1.31526271622799   -0.12593391966006   -1.22606530515173
H           1.48255427129436    1.27314235337686   -1.82859468301931
O          -0.50071232835119    2.34674893220195    0.40054081930752
H          -0.42394288116165    2.22180028790431   -1.21709828158394
H          -1.07485895028504    1.55396352745622    0.48241013092223
H           0.33879409094332    2.10065572495404    0.81256585972966
N           0.08837701499212   -0.86550676853156    2.03499390563845
H           0.91093446425578   -0.27075547514150    1.79790518814764
H           0.17458420691981   -1.85219728711989    1.64892768898062
H          -0.09477905613230   -0.86750110229097    3.03301989364111
H          -0.73793178261966   -0.45937082499035    1.48029060719861
