    26
        -50.44928175  Gyration_radius:  2.47059287968 Dipole_moment: 7.769
 S          -1.41446868348939    0.18634490604977   -1.72984010498161
O          -0.79264574778726    1.31490531386727   -1.06969519678408
O          -1.74588740115618    0.34525329578591   -3.09443240387809
O          -0.48618652624539   -1.05093002433873   -1.51149094724650
O          -2.65516193456387   -0.23754184109095   -0.92579467963310
H          -2.44592288650529   -0.27572338028589    0.05891244994090
H           0.38450684365585   -0.89852697374251   -2.01141435891780
O          -2.21691098832903   -0.23473642570797    1.61735372590572
H          -3.05113049027903    0.03505008245003    2.00651983027949
O           1.78737228205017   -0.58554115715821   -2.54060843489755
H           2.46603219688102   -1.21417493021275   -2.28575914996257
O           1.78054145254215    0.40852485816572    1.58354523600184
H           2.39135364955417    0.29136922351584    2.31160083606304
O           1.91661603827129    1.48486481315140   -0.97502982087381
H           2.01676831162844    1.17342388942467   -0.05999501472298
H           1.97049942992162    0.25750492993012   -2.03568298082787
H           0.96710701293435    1.66844484080259   -1.07883573300904
O          -0.60592202551800    1.78153920620727    1.57048795557225
H          -1.59884997100171    0.55745392284283    1.70018246094446
H           0.29740923203495    1.44225367078360    1.70332987246813
H          -0.69893074789916    1.86645826228733    0.60436431494676
N           0.31464458192378   -1.78432079423265    1.24107881067408
H           0.08733781696306   -1.75749606849522    0.25051935107203
H           0.59723749857854   -2.72894911175105    1.47065601668402
H           1.28676823686015   -0.45440398948656    1.46777798583306
H          -0.55217720102890   -1.59104650874721    1.73224996934714
