    26
        -50.44968555  Gyration_radius:  2.43959203653 Dipole_moment: 3.944
 S          -0.41515978834309   -0.75938069278476    1.50356598434672
O          -0.17901421602015   -1.42436201913069    0.23903778957206
O          -0.00389351329381   -1.48004065853915    2.65733771390365
O           0.29746868397673    0.61584954748858    1.45634759574900
O          -1.89229905206068   -0.37902110857181    1.58828413655095
H          -2.18649550454560    0.04048807017248    0.70655070325211
H           1.24310996712427    0.41773111965961    1.80375992519077
O           0.92948929900269    0.23345570524425   -1.69712688920890
H           0.61835292327243   -0.24290443900446   -0.91366662101012
O          -2.64916402629617    0.57170460367494   -0.65166392927645
H          -3.58952974096664    0.40148567208715   -0.74114074798264
O           2.49045359148560   -0.29419012883150    2.27020313283943
H           2.07203282710185   -0.92716630888003    2.86681873386448
O           2.54800216956238   -1.64179775392721   -0.01406215258612
H           1.61095822606863   -1.88453096939006    0.04695757788189
H           2.61489314064247   -1.07516233428562   -0.79166784519537
H           2.74396321736915   -0.80589803430948    1.46336903762693
O          -1.39003563499869   -1.01745885919003   -2.27552626966178
H          -1.14857585105823   -1.68738694559238   -1.62460866265748
H          -2.19236324373442   -0.00701023189981   -1.33856319466776
H          -0.55287088404043   -0.53175107331715   -2.43347797648265
N          -0.25099615852450    2.53250948050877   -0.81645810699998
H          -1.23232185876324    2.29231233784857   -0.90037678988406
H          -0.15060361535670    3.52050922090765   -1.01040817691824
H           0.01051595093616    2.37021011004498    0.14973109560715
H           0.65408309134046    1.16180566999992   -1.54321605390319
