    26
        -50.45371817  Gyration_radius:  2.52326371002 Dipole_moment: 7.368
 S          -1.88202581973286    1.33797317847696    0.01419069786705
O          -0.97447593634721    2.42614656703133    0.32413423220819
O          -3.12426299231529    1.67862403876706   -0.58042104155845
O          -1.13539342960587    0.30399783174178   -0.77715244575858
O          -2.18376293368445    0.58302701269279    1.38192901021835
H          -1.33908490104152    0.51453928410606    1.85858025013339
H           0.31386287712577    1.06477876370166   -1.13363357923827
O           1.31731255277823   -2.75084627528645   -1.09364961116256
H           2.25919061946392   -2.58839682921545   -1.02275907988562
O           1.21634894578409    1.33389138993754   -1.42194555851742
H           1.12684007783764    2.24653178028968   -1.70296543928868
O           0.19973886953137   -0.02581845461933    2.57909514115705
H           0.25565237782265    0.15883027773815    3.51728870657850
O           0.41139549158813   -0.94458861534387   -2.78992878105601
H           0.99522070405913   -2.18473692476180   -1.84386820619032
H          -0.45283473276081   -0.68813467799528   -2.44272122914967
H           0.97729351928767   -0.18210796319380   -2.58957066732431
O           1.37107998039232    1.85006022212990    1.28965112085912
H           1.76108409922259    1.57440971088768    0.44613437165359
H           0.50810793618622    2.24939897457420    1.01495996910246
H           0.75789781109214    0.68016674181867    2.12025979479938
N          -0.47496950048803   -1.75407885863134    0.58773875827608
H          -1.25436390695580   -2.37617894412659    0.77401500347561
H          -0.81658034603745   -0.91007639938398   -0.01000784196458
H          -0.11256616792316   -1.35468570552735    1.46703097283202
H           0.27929481466768   -2.24272613572133    0.03361546204026
