    26
        -50.46788080  Gyration_radius:  2.39867494688 Dipole_moment: 5.648
 S          -1.11913539046639    1.41540592088181   -0.06286090075257
O          -1.38965464925532    0.46721784344744    1.04346887963074
O          -1.22233466644882    2.78505665274687    0.36268385997534
O           0.18346536930650    1.11215383567855   -0.64545038434732
O          -2.19868635716495    1.13801026472760   -1.15406274313855
H          -2.01059054101387    0.23771552389015   -1.51235971028571
H           1.70858026076097    2.83190712164727    0.18134547402854
O          -1.56705270488606   -1.24860156001664   -2.16240508106328
H          -1.89064816043830   -1.28692415054112   -3.06395064003819
O           1.53381936619105   -1.87881650064054    0.55819674374357
H           1.89800522450750   -2.69046908911161    0.91375587311496
O           1.32986403514101    2.89719689574999    1.06293714437479
H           0.36763094330627    3.02907614778383    0.89424895107715
O           1.01619384869262   -0.90375254515060   -2.07692422624242
H           0.81922654172619   -0.04042101013825   -1.65041141308747
H           1.42195752851724   -1.41882478235641   -1.36710188154274
H          -0.56936773591251   -1.17940497991765   -2.22121687674734
O          -1.06750510771909   -2.08659298364865    0.45163037498437
H          -1.39071160792035   -2.13377970660058   -0.45715027646307
H           0.54330445667490   -2.01704794285042    0.50751627242552
H          -1.31300820419075   -1.18279201429932    0.74903052701856
N           1.01396487194054    0.42009748436507    1.95617506736194
H           1.17220295411596    0.30868118503790    2.95234050988555
H           1.44637775509324   -0.35313182638404    1.41060323951063
H          -0.03358505550390    0.39750757308594    1.71347189488644
H           1.31768701501898    1.38053262263054    1.61648931172296
