    26
        -50.45371811  Gyration_radius:  2.52334915408 Dipole_moment: 7.372
 S           1.07975461117868   -0.29719998874900    2.01905459928596
O           2.10970313644942   -0.96664356339592    1.24781296823079
O           1.45786147611361    0.24272359750104    3.27534247894961
O           0.40905703889018    0.71820709907921    1.14044170516347
O          -0.07567142264964   -1.36169754335435    2.27065679175654
H          -0.19990825151328   -1.84559729312754    1.43651355862046
H           1.38090591352928    0.74856201630646   -0.22355798246901
O          -2.15525013300282    1.77838028614597   -1.64262012397647
H          -1.93187440118525    1.60947331783332   -2.55919246397932
O           1.81215997630005    0.89065771909987   -1.09754539199308
H           2.75346752212419    0.89472137736310   -0.91361951291793
O          -0.77627937327895   -2.46373589215984   -0.13344039525720
H          -0.87659844786383   -3.41624208585162   -0.14374539774535
O          -0.02016843586361    2.91487539070623   -0.58878138788728
H           0.03445889840714    2.55785846078399    0.30721716680054
H           0.69894257623215    2.46605972416246   -1.06113788252744
H          -1.42407029452962    2.34500431688840   -1.28008319419814
O           1.50635455128248   -1.85671598030031   -1.12078321698564
H           1.88208755348093   -1.66141613647230   -0.22618820183435
H           0.08647419323227   -2.26729909088995   -0.62087037817149
H           1.53583836404027   -0.99389632512439   -1.56159429227492
N          -1.88772301320280   -0.01589279135388    0.29186008944194
H          -1.73584929873589   -0.99320129816341   -0.00106021534394
H          -0.94133869150421    0.32562849639487    0.70921331313360
H          -2.11200111481122    0.61292889326798   -0.52600504149002
H          -2.61033293307318    0.03445729340475    1.00211242772622
