    26
        -50.45371815  Gyration_radius:  2.5235413516 Dipole_moment: 7.370
 S          -0.38011790577795   -0.65791245957994   -2.18083924225487
O           0.14120828654043    0.64390875472499   -2.55132687892367
O          -0.31913914203541   -1.68360962537230   -3.15911285067996
O           0.24692804993796   -1.07135411767135   -0.88129808150973
O          -1.90659885266956   -0.44936022116651   -1.78350886188091
H          -1.95096702163292    0.36400510267550   -1.25260395840732
H           1.44471898639223    0.07631412437373   -0.65025885412036
O          -2.05398533088467    1.56996855065816    0.05619087800967
H          -2.74237737737896    2.21949819193126   -0.09104463598567
O           2.17496637145477    0.65853174993682   -0.33745535313187
H           2.68480548185639    0.86375506446507   -1.12347650011832
O           0.53373508543489   -0.99455540103490    3.03903599411355
H           0.94661956714965   -0.23528402363783    3.45328254662108
O           0.17852712425194    2.52469350996336   -0.75467502371006
H          -1.18366879315880    2.02445404749205   -0.18189871107702
H           0.95353478480752    2.19066457365719   -0.27779540984644
H           0.16281245047054    1.96547437968873   -1.57114800865303
O           2.16498937204263   -1.71918562822098    1.09610945823507
H           1.20927685134399   -1.36980834643979    2.41469062304529
H           1.58573922357012   -1.99932174300173    0.37562252604048
H           2.51034695995088   -0.86323495886756    0.79612054458500
N          -1.30334552698732   -0.81362806255728    1.13470243753934
H          -0.68128275697085   -0.83601486804653    1.98739797486747
H          -0.66704248024621   -0.98930245380726    0.26815544060252
H          -2.01765350512727   -1.53237718790165    1.18292806348964
H          -1.73202990227937    0.11368105774445    0.99220588300339
