    26
        -50.44968552  Gyration_radius:  2.43968927852 Dipole_moment: 3.942
 S          -0.83450719603677    1.27501433910705   -0.82832150462637
O          -0.80383618730298   -0.12248981918797   -1.20659337220319
O          -2.05183027256747    1.95454484919016   -1.10411794285001
O          -0.50959009097409    1.36394939505316    0.68418886340101
O           0.35238399297401    1.98417725800275   -1.47793164498245
H           1.19348136862125    1.42072825235418   -1.35571757277780
H          -1.42569882919101    1.28178165355007    1.14053362214595
O           2.42987306462383    0.52405842444621   -1.26184752400331
H           3.01361531438468    0.73207652539761   -1.99481184870377
O           0.27003865231777   -1.77957594475750    0.74911261356797
H          -0.14660918722608   -1.10395753224168    0.19458233922203
O          -2.89623296855493    1.05422880560606    1.39662583975244
H          -3.24490496911289    1.55772097855014    0.65056444544412
O           1.39522457053003   -1.81761580674008   -1.70288818347120
H           2.09765655900490   -0.41316522691112   -1.42477062186723
H           1.17504122839877   -2.12112294250818   -0.79670438346647
H           0.55076781278335   -1.51114707097163   -2.05470297675331
O          -2.67355281666209   -1.37986935398746    0.36572372010761
H          -2.20195536278874   -1.05987560960648   -0.41909059995005
H          -2.04135299431368   -1.93816415401002    0.83354170439298
H          -2.99722160046358    0.10131174702003    1.15401211623690
N           1.99546828355693    0.07077507747157    1.77605107129354
H           2.56544335410986    0.27874203285659    0.96388735022068
H           0.92106911796690   -1.28402052694489    1.28945073953449
H           2.58141659143407    0.13886731776856    2.59823565290650
H           1.28581255443090    0.79302735153016    1.83098809749600
