    26
        -50.44968551  Gyration_radius:  2.43965658306 Dipole_moment: 3.943
 S          -0.91682600297861   -1.22285791842187   -0.81932041652891
O           0.17508841469824   -0.44927390576921   -1.37279418272383
O          -1.01494539613044   -2.56085993121361   -1.28827464586455
O          -0.77144521243320   -1.21186506828114    0.72335568375291
O          -2.22124205227959   -0.46130720208431   -1.04787604353038
H          -2.08939560630302    0.51969833756736   -0.80261285344318
H          -0.17513917399439   -2.02364174153944    0.92300092464425
O           0.74795062648361   -3.20895171472222    0.77278456840064
H           0.29207067664739   -3.64583619258861    0.04269328945539
O          -1.85788236980634    2.00817577528615   -0.53418009116789
H          -2.47984501898298    2.51333271249036   -1.06262287085513
O           1.58705571935535    1.00111271561263    0.53195027935254
H           1.06096441000768    0.39227088353338   -0.00665210831013
O           2.48271109761163   -1.66208312156253   -0.50579761993724
H           2.78961106399602   -0.91359800599651    0.01934006483122
H           1.55181955968988   -2.78856182436935    0.38014291359712
H           1.80339999311767   -1.30031598490046   -1.09603889695408
O           0.51083179392494    2.34520542746044   -1.54594317275003
H           0.54464039042849    1.52168887253603   -2.04747853086128
H          -0.94358780522752    2.21125664371396   -0.90587983677457
H           1.09233384255222    2.17407377854002   -0.77512270857162
N          -0.53114466509435    1.41240876474802    2.20553197918683
H           0.99892493622629    1.23400386925946    1.28106790319970
H          -0.81546534885560    0.43927344403598    2.18513558011708
H          -0.65465315025846    1.75905620508346    3.14808171332216
H          -1.16583070244100    1.91759517153658    1.59750907841120
