    26
        -50.45371820  Gyration_radius:  2.52345173859 Dipole_moment: 7.367
 S           1.60503604560946   -0.94970574680773   -1.36230177215300
O           2.51102393815736    0.03264241153194   -0.79836702697217
O           2.18112304053486   -2.12544186189564   -1.90864094194914
O           0.53998146696445   -1.25423041972231   -0.34942420357244
O           0.79171175162246   -0.21936583680181   -2.51838546074394
H           0.55353264267330    0.66161792220907   -2.18282362615493
H           1.09572536868181   -0.49188275684936    1.03428413413499
O          -0.27579343853839    2.08605444553778   -1.50395697318894
H          -0.18338527154852    2.86614986571471   -2.05202415652897
O           1.24609148491150   -0.10111191711583    1.92583562133275
H           2.18189336938347   -0.22279910168267    2.09719914481898
O          -2.81819516576999   -0.45969244007698    1.53374710383625
H          -2.81001361459249    0.21079256392791    2.21858020826865
O          -0.75487804773335   -2.02219246897919    2.04673436598951
H          -0.10854107303294   -1.38837792690726    2.39660541399447
H          -2.14713453340108   -1.13990933138274    1.80560148681400
H          -0.39946160312382   -2.25929929294628    1.18029779112516
O           1.50293476994063    2.14529597663198    0.33581646857161
H           2.05171129419995    1.46026916900988   -0.12160005076884
H           0.37366746017151    2.20206781137249   -0.73874840446916
H           1.24300275006083    1.70179033973030    1.15767520651619
N          -1.70376230996373   -0.13714760775869   -0.85126539867752
H          -2.25380260625020   -0.16720987285341    0.04934513865382
H          -1.44097876659427    0.82540575568113   -1.11287685403617
H          -0.76945918688091   -0.66875252918106   -0.67486925163049
H          -2.21202978623546   -0.58496717037030   -1.60643794309151
