    26
        -50.46172238  Gyration_radius:  2.52008353863 Dipole_moment: 6.732
 S          -1.81256293623055    1.07329934704431    0.78668832035207
O          -1.16676393619477    1.18669864911605   -0.53864133794580
O          -3.21665723678617    0.82206473070770    0.69691442828200
O          -1.09923041731661    0.08117014119578    1.59100443801619
O          -1.58420074567219    2.47298657584503    1.47465054131701
H          -0.64765017751977    2.66025916613965    1.40213971175383
H          -2.00945859077868   -1.39339082247228    1.22252944924481
O           1.23800968597984    2.13122421738352    0.03638625971492
H           0.34693309384574    1.87712138762324   -0.27552311242787
O           1.71590465367295   -1.67395691960279   -0.40871504860120
H           2.03550001800079   -2.51653033421474   -0.08380020585106
O          -2.58045483287515   -1.83280004449538    0.56275329705339
H          -3.28723280351373   -1.18029598357827    0.44965197588888
O           1.52809978938991   -0.05384813623377    1.55745953840415
H           0.56813808136229   -0.09060996892732    1.75300503399759
H           1.67232646772459   -1.06055051667347    0.40630036499919
H           1.63322431558630    0.82369460613202    1.12823180900658
O           2.72905983932964    0.59155888626562   -1.73821953440936
H           3.67939672812981    0.62760708264041   -1.61933355484093
H           2.43568610513045   -0.26222427303805   -1.38305078633580
H           1.82727957128942    1.84911042801007   -0.68408264128246
N          -0.79472012505738   -1.25089985381096   -1.29466175764693
H           0.17485628083343   -1.52189992693881   -1.00139310689519
H          -0.95884633594595   -1.46913936608609   -2.27151971335814
H          -1.52009293563644   -1.68930050253685   -0.65726702126853
H          -0.90654355669433   -0.20134859965489   -1.11150736701348
