    26
        -50.45259538  Gyration_radius:  2.64403896359 Dipole_moment: 7.880
 S          -2.21824809444254   -1.13059108904153   -0.74907399540717
O          -2.63567457909555    0.10265708232259   -1.38392751747864
O          -2.84339354471493   -2.32985857172428   -1.18208413848615
O          -0.72010372923225   -1.22422102071024   -0.78215952695254
O          -2.52031873389002   -0.97279828316830    0.81109066970986
H          -2.20236209690814   -0.08897696343219    1.06395895413059
H           0.11837622011638   -0.16916725268388   -1.62125366088017
O           2.93654010127606   -0.92273460323004    1.28874161380882
H           3.39925174998650   -1.73168722492871    1.06420336962286
O           0.66008715935254    0.52905210471411   -2.08180716846760
H           0.52483663718969    0.38321354888244   -3.01925007322909
O          -1.21422886164661    1.27032800127756    1.65505182021354
H          -1.70357606261988    1.89860092269423    2.18707252775221
O          -1.15491456143038    2.13436435409514   -0.75371813769901
H          -1.12824255068117    1.68985127096903    0.73831841241257
H          -0.35552591802662    1.86515226029049   -1.23157037046154
H          -1.83426135157515    1.48133076847266   -1.06287335199040
O           3.06712594106468    0.57727650231756   -0.89209265562909
H           3.25109075009872    1.51297432941684   -0.79623973860116
H           3.03672629903960   -0.33146027893000    0.50309582080060
H           2.21150667430919    0.51364529585999   -1.36970912994729
N           0.27850120623895   -1.01878623452026    1.54888162074352
H          -0.11668896436291   -1.18860810413087    0.54353145856988
H          -0.09675496275385   -0.10183257278019    1.83601944642819
H          -0.07028611838141   -1.74285380833733    2.16831602773594
H           1.33053742132263   -1.00487041412125    1.51747774334230
