    26
        -50.45259534  Gyration_radius:  2.64408632031 Dipole_moment: 7.882
 S          -1.21691070807342   -0.08801031601277   -2.29609222360623
O          -2.46666236989757   -0.38553199430015   -1.62700285699385
O          -1.29242544476661    0.44141565245978   -3.61161896121624
O          -0.35655241570395    0.74818837342173   -1.39342197859203
O          -0.40012634048313   -1.45772268972883   -2.38059151831957
H          -0.46830855970346   -1.87250313047820   -1.50339721546670
H          -0.95578741890246    1.32425406864372   -0.04111338810493
O          -1.29541698637353    1.62937237247205    0.84473895104460
H          -1.93800197105683    2.31373888558217    0.65236997394490
O          -0.15632633663185   -2.40269134255663    0.16844890829017
H          -0.36596421662145   -3.32409891400732    0.32442932343510
O           2.95899880401139    0.97740322436037    1.19545154112131
H           3.44516366583301    1.74100390556717    0.87999696299370
O           0.83955196146231    1.97219883450573    2.43735425980923
H           2.20169466861778    1.34036542640707    1.71657300540342
H           0.06521650421954    1.91025304552482    1.83656267699180
H           0.56606606736342    1.57953494653848    3.26778171472509
O          -2.17101266573978   -0.99108528937776    0.87575912494975
H          -2.45201772321198   -0.82265275348242   -0.06029311325234
H          -0.93058896501982   -1.87327013027922    0.54794054883145
H          -1.92111053864784   -0.11000879558220    1.19378260136466
N           1.69077523118312   -0.53893771736467   -0.60258734801463
H           2.25290482548754    0.01920211874640    0.09078416033722
H           2.25857547412577   -0.85105516463779   -1.38348930426766
H           1.24190752711639   -1.34989431811902   -0.14993059243314
H           0.86635794153421    0.07053172176501   -0.98243526296107
