    26
        -50.45911265  Gyration_radius:  2.43544100038 Dipole_moment: 3.785
 S          -1.69680373131491    1.07420966493720    0.80472923863042
O          -1.31808334587864    1.19954246002437   -0.59534110543082
O          -1.87976960535467   -0.31164064285184    1.19815399800885
O          -0.80253183697970    1.80801021523511    1.67507032423670
O          -3.11948834677529    1.75414808149412    0.95750898303163
H          -2.90104341556952    2.67923671479645    0.99694288381774
H           0.24007216897955    0.59408545851494    2.06790101510427
O           1.88185284462094   -0.59728418429477   -1.76394713657455
H           2.67756715628045   -0.54905163743060   -2.29380160915543
O          -1.18631586225942   -2.21094227065214   -0.28851357823895
H          -1.58148269303242   -1.49821573242465    0.33727997814660
O           0.84379111072099   -0.15658281993172    2.26292890141651
H           0.44549449228059   -0.60940495422199    3.00892314328952
O           1.21082390380827   -2.06785110008249    0.41436247976408
H          -0.18212273014055   -2.29133861613436    0.03884481011858
H           1.59739768036501   -1.63589288266502   -0.37251130905053
H           1.16422422307649   -1.37443616775050    1.11155190957476
O          -0.79904896315815   -0.75478083021462   -2.28688174124086
H          -1.10371715901357   -1.71385134194531   -1.21639932700671
H          -1.07090926760395    0.06169455108750   -1.81103108976449
H           0.17653902907973   -0.72526441859778   -2.31036351750412
N           1.50663648638908    1.56605992343481   -0.34047596003829
H           1.74772227363328    1.39477519450832    0.62886039127763
H           1.85789911412013    2.48340890952219   -0.58497051431633
H           1.80356128086364    0.27489802778372   -1.25709773820292
H           0.48773518286240    1.60646840786010   -0.38172340989084
