    26
        -50.44023252  Gyration_radius:  2.54395958842 Dipole_moment: 6.134
 S          -1.82166482942578   -0.68396113644087   -1.59892538271488
O          -1.67071774566805   -0.59791682635041   -0.17211571407365
O          -3.14261192559149   -0.71991070772119   -2.11117979536956
O          -1.01106284552014    0.50702870096814   -2.21822464337738
O          -1.02471930723220   -1.89456953199185   -2.13662055188195
H          -0.06237814405625   -1.71089140765005   -1.92430345635798
H          -0.98473604335008    1.21990867700347   -1.52976999750587
O           1.42204189536465    0.13148644229255    2.17105190511023
H           2.12379832776532   -0.10209486103006    2.77920486062196
O          -0.97444034038380    2.35977015167932   -0.37921710550133
H          -1.81741766371712    2.80259969688870   -0.49228006196011
O           1.43831357321620   -1.29178551181391   -1.65654257463185
H           1.83272981477568   -1.15286100031180   -2.51991656141145
O          -0.68480092449695    1.84748284840749    2.20746997206576
H          -0.31372678453591    2.61269974404497    2.65127066932768
H          -0.95842988814665    2.05001148388969    0.56305455171128
H          -0.01209974128948    1.14266740330455    2.26494548339444
O           1.65066526262604    1.02168767271553   -0.40857803664251
H           0.89847189891926    1.60657646381922   -0.54606380315327
H           1.64116805473855    0.77904921691166    0.53674320136977
H           1.50483289126310   -0.41571492709656   -1.18760799507768
N           0.38068143208317   -2.02295239174180    1.13265263236440
H           0.07380234015191   -2.83317097044362    1.65512172439387
H          -0.45036995927653   -1.57156529365761    0.74291492725455
H           1.02786225498121   -0.73950061119134    1.82972005161617
H           0.93480841681142   -2.34407332448681    0.34719570042348
