    26
        -50.44945234  Gyration_radius:  2.47367802842 Dipole_moment: 4.982
 S          -2.05841803615271   -1.17293721105313   -0.47551717638130
O          -1.43838755292091   -0.72071696746072    0.75071003067046
O          -3.47372233574150   -1.23913058463836   -0.46811320277004
O          -1.54146779161997   -0.27178259240527   -1.63572352938623
O          -1.45107656083193   -2.52855213631844   -0.87920692950411
H          -0.48168786593645   -2.31568452025661   -1.00580798466453
H          -1.48378057810150    0.69724544784147   -1.38138270507624
O           1.01817083302445   -1.81783528787967   -1.05574861924974
H           1.63267437825979   -2.48266183500464   -1.37220633390952
O          -1.24726666953918    2.19942506855276   -0.98858684395820
H          -2.04977484864422    2.71372823109287   -1.08869310505553
O           1.94277870286439    1.45018817805961    1.17180357651829
H           2.50091580926781    2.22699332712777    1.22460014489189
O           1.36385450956710    0.96927051605361   -1.37903729062305
H           1.14917577595825    0.02619162865287   -1.45081104628500
H           0.54377002913386    1.45045075302477   -1.53745442023427
H           1.80867425208167    1.27069535023770    0.20761121389291
O          -0.75435228426651    1.77324674532433    1.49899704869768
H          -1.08482075282170    0.85880681773069    1.43848743319681
H           0.21911336116411    1.69447901361301    1.54428053817761
H          -1.06013466066740    2.14567480396792    0.00360750186091
N           1.24743605314196   -1.40631010746047    1.48915465485406
H           1.54313806966043   -2.06500086233766    2.19697731575162
H           1.19936733094458   -1.68875225099737   -0.05482443361050
H           0.24643093636260   -1.24875369305082    1.58767800918768
H           1.70938989581195   -0.51827781242469    1.65920615308120
