    26
        -50.45911286  Gyration_radius:  2.43547400931 Dipole_moment: 3.783
 S          -1.91846215003996    0.19119337571905    0.98150491430744
O          -0.82662369443260    1.10950181701533    1.27094397123841
O          -2.20426342327446    0.11499066461559   -0.44026431836183
O          -1.71637366235495   -1.10218820977221    1.59964626217757
O          -3.21986737339161    0.80092748672876    1.64814135156461
H          -3.12301530074378    0.54333548700149    2.55873182858248
H          -1.00146351448221   -1.88869152421274    0.34052394729027
O          -0.56635582248111   -2.31274119331536   -0.43203550586296
H          -1.28588046184564   -2.65136214869457   -0.96855075725893
O          -0.67843517216132    1.13425358728721   -2.15229894834299
H          -1.40055764284750    0.77253728783532   -1.51704342121234
O           2.58084946765839    0.44057152301074   -0.39447976852834
H           3.53193608286761    0.41882140745631   -0.28868025572207
O           0.67385651587453    2.40115510907177   -0.46990122156034
H           1.48975410232367    1.86558091787108   -0.44441739774895
H          -0.11971534943968    1.79584001667613   -1.54823287676699
H           0.13136372639121    2.08175766917934    0.28549759064329
O           0.89420749520499   -0.81139834976604   -2.11053058664794
H           1.62850122642851   -0.43054097640865   -1.58996013759939
H           0.42067713239292   -1.42678298000185   -1.50541693586958
H          -0.02924166200829    0.30662468268856   -2.27800722249104
N           1.33676582446751   -0.73393044366384    1.58540607878569
H           1.70670497783820   -0.82671632380550    2.52307135081900
H           2.17707524581997   -0.01866959243635    0.41161420384238
H           1.00146195316281   -1.64591901079333    1.29739244017015
H           0.51710146907191   -0.12815026929125    1.63734541455443
