    26
        -50.45730953  Gyration_radius:  2.44878520431 Dipole_moment: 7.974
 S          -2.38311869734406   -0.26084185451745    0.32410866690588
O          -1.40798436516737   -1.34288576719070   -0.01609240389428
O          -3.73008278828164   -0.64439869473079    0.09214414304130
O          -2.15796594942578   -0.04494256589020    1.88184967154394
O          -1.95115233998601    0.98808877449626   -0.28844180396403
H          -1.00458184892995    1.23283343639202   -1.50012682633828
H          -1.41513110778132    0.58240522086256    1.89663901595391
O           2.33451464906795   -1.04194993617013   -0.55640549997636
H           3.06971047264062   -1.53911125447593   -0.91522132311440
O          -0.33267602011553    1.39911129366050   -2.22146086887424
H          -0.72938034109976    2.04919880825323   -2.80211953702287
O           0.16508944804156    1.35197928261723    1.98301087037989
H           0.04890850527538    2.20450507774702    2.40349766164514
O           0.27734161121958   -1.25049671670653   -2.08826529193764
H          -0.43585409634256   -1.41897421364334   -1.43798821237150
H           0.10935001617674   -0.34340055769699   -2.39722779813271
H           1.57105161117028   -1.15171712365156   -1.21361649998465
O           1.51289799588355    1.63305040475754   -0.23485485037590
H           0.89463834126099    1.68482725867602   -0.98896189745068
H           0.62739974511760    1.53403364133271    1.11338272023889
H           1.99349916354376    0.80100961144371   -0.35572813137973
N           0.61241496846890   -1.29745739798667    1.49466990150265
H           0.65337380186242   -2.07195572687624    2.14689252297501
H           1.41998527360680   -1.29537740348117    0.83414935591171
H          -0.30755279111250   -1.36282841645814    0.86103263616453
H           0.56530473224807   -0.39470519076315    1.98513374855813
