    26
        -50.45730957  Gyration_radius:  2.44866862631 Dipole_moment: 7.970
 S           1.45407096417501   -0.96210428098406    1.67617638351031
O           1.77745955123770   -0.76014505424717    0.22982602888351
O           2.34366066359045   -1.86472113683634    2.31591415517417
O           1.63971704336980    0.48876971118662    2.29634449128697
O           0.03223896023237   -1.24507799765952    1.81795399465996
H          -0.98811266691633   -1.78835465623411    0.77486406558409
H           0.77063581249267    0.89334829520792    2.13360078553010
O          -1.66387996986488   -2.05584666673480    0.08846034699270
H          -2.18097198403445   -2.75445692805593    0.49051441539382
O          -0.42709576507942    0.72396780421042   -2.47763819465943
H          -0.47641123941405    0.79359271537981   -3.43113757802073
O          -0.59543231111851    1.79592110429303    1.48644335110997
H          -1.11552331915648    2.10557509892632    2.22870450941066
O          -2.14235772977836    0.60332034083804   -0.24581639598571
H          -2.11707307296609   -0.36140721154359   -0.09729869051500
H          -1.22956909150147    1.29454950026113    0.89519578810385
H          -1.72323697067690    0.73977885141288   -1.10810972006853
O           0.26826147283873   -1.65527157036602   -1.78628687291659
H          -0.16919017903282   -0.23514628451780   -2.27691458819086
H           0.94525101069649   -1.47159585461061   -1.10235884962042
H          -0.49233124410817   -1.99578854999370   -1.28416785703814
N           1.22642302248809    1.58021973982922   -0.53618098294877
H           1.53053868829268    0.56083869767336   -0.19000280903727
H           0.65265881158091    1.98449308272376    0.21560422752432
H           2.04162537352048    2.15087964842177   -0.72784059662289
H           0.63864414912880    1.43466162141212   -1.38584940753944
