    26
        -50.43891928  Gyration_radius:  2.47082426713 Dipole_moment: 7.243
 S          -1.94299696965148   -1.24927784868533    0.46631056622944
O          -1.03100724609532   -1.59598153857221    1.54800341539964
O          -2.88483338819429   -2.25830898088910    0.09880575960192
O          -2.84724335124742   -0.03042534277901    1.04832403925487
O          -1.21056314470667   -0.64032735184683   -0.63858745561624
H          -1.15484911443731    0.81900878025608   -0.96617963291342
H          -3.67922331436058   -0.47955992260952    1.15377328705482
O           1.32026037341375   -1.28251442234845   -2.21697310490220
H           2.12974067316789   -1.72004096239128   -2.48889676537979
O          -0.95987068841942    1.76323161307044   -1.28339486210305
H          -1.47005875643420    1.87087878855098   -2.08817997689943
O           2.12677936976813    0.87801162867535    0.79898943435024
H           2.68419183485465    1.54957752300201    1.19333116852589
O           1.45997642749923    1.14615949817422   -1.62815895998361
H           1.79422847122174    1.06750511015789   -0.65257977893521
H           1.39461067075943    0.14676283641626   -1.95928086222196
H           0.47297588586930    1.47075382441796   -1.53976112336157
O           1.30196809732695   -1.87970825147976    0.31175579657508
H           0.42642729483667   -1.89354740924835    0.75235863652284
H           1.12712252379797   -1.60638167626779   -1.28860847343392
H           1.75671545347279   -1.10976834515077    0.67454883951228
N          -0.23004347829802    1.04576536363953    1.78751317256406
H          -0.85262254722793    1.56271013931209    1.17766918992109
H           1.18490395972596    0.96315847664435    1.24075189089037
H          -0.36348115420969    1.38995283498271    2.73016294859249
H          -0.55310786243319    0.07236562496552    1.76830285075653
