    26
        -50.46271459  Gyration_radius:  2.62439743343 Dipole_moment: 2.669
 S          -1.33100168057755   -1.91997375303231   -1.15381731362595
O          -0.70562908111637   -3.17422803221644   -0.82609942326899
O          -1.92919113808083   -1.22558300954154   -0.03622158737159
O          -0.42251170360622   -1.02232331640798   -1.89253775696520
O          -2.51404124569177   -2.25184795089894   -2.16998046160030
H          -2.21566823036443   -3.05013284902162   -2.59623939931652
H          -0.32596509348736    0.57436610634706   -1.79125895886562
O           1.07919822574369   -1.40230899620177    0.19570385119417
H           0.90085229027224   -2.34325323150029    0.31118390700636
O          -0.20359162750735    1.55067493560691   -1.65726092097359
H          -0.26646276171116    1.94730521033851   -2.52709398859427
O           2.05243645436493    1.97999770780855    2.15952614338310
H           2.90910492875206    1.85100440973432    2.56802577261584
O           2.20426112790537    1.20184798284977   -0.35926778587540
H           1.40118331953506    1.46209167458140   -0.84678717458251
H           2.18504549304220    1.84366825544321    1.18724089278967
H           2.15169120651625    0.24233120704881   -0.27609903385481
O          -1.88574738876827    1.33425465096372    0.49329249670747
H          -2.14042284542274    0.41770035571964    0.24176578866757
H           0.59751800110328   -1.21271671894866   -0.64273038738482
H          -1.38249460865137    1.66878325755984   -0.26893446312139
N          -0.02680546084486    0.30138918955906    2.00304162537093
H           0.74173077638086    0.97325555769286    2.23754827830879
H          -0.41832272823880   -0.13301204836715    2.83116853744651
H          -0.80756103535604    0.81685963198863    1.46160836553726
H           0.35239479580155   -0.43015023710871    1.35422299636774
