    26
        -50.46271426  Gyration_radius:  2.62434675838 Dipole_moment: 2.666
 S          -1.70190049291177    1.67690438953006   -1.03992913355888
O          -2.50723321358380    2.23114228855333    0.01630030481422
O          -0.30271652167135    2.03609853700996   -0.99352042109733
O          -1.85591489813500    0.21337130759251   -1.14623930337323
O          -2.27663881436377    2.26161224634370   -2.40746429074247
H          -3.19262852847342    2.42849276420245   -2.20485468348220
H          -0.73505556620072   -0.86445999490002   -1.53458081988224
O           2.21873782122189   -1.79132186892012    2.15968471581852
H           2.16540165047908   -2.09916971933237    3.06510407905290
O          -0.01862124234093   -1.53600884220379   -1.68222517843408
H          -0.32225914499978   -2.09419953241628   -2.39927389723438
O          -1.12290772970517    0.31002115041913    1.34610867989423
H          -1.62990084009986    1.09062047694890    1.59902658928732
O          -0.06239949313323   -2.34948902621208    0.95251658132290
H          -0.63884799032541   -1.64840572300732    1.27901096379550
H           0.01210779656989   -2.19471961835502   -0.00705154123794
H           1.42760257847572   -2.16269568364475    1.69303657620302
O           1.77550129337598    0.52222718079163   -1.46765978356292
H           1.05772651871139    1.19414997831208   -1.50660159652741
H          -1.42694939817621    0.17009215147933    0.41922461380590
H           1.34013176858425   -0.31774393896300   -1.69366272516090
N           1.57250253737896    0.59420927807175    1.13140637967509
H           1.95334954283014    1.45361746006599    1.51109440109868
H           1.96606691252571   -0.25316900519335    1.60475200899605
H           0.52885944318175    0.58291461882787    1.23490606163116
H           1.77598601077765    0.54590912500297    0.07089141887970
