    26
        -50.46846760  Gyration_radius:  2.39968436934 Dipole_moment: 5.636
 S          -1.27893661356018   -1.26427776868611   -0.27930119956462
O          -1.62630036676183   -0.16455267443046    0.65355061255720
O          -1.69223276619406   -2.54557654475450    0.22536765964547
O          -2.03675871587426   -0.96687377775227   -1.60837427016338
O           0.15041509391363   -1.21369765328018   -0.56505828711118
H           1.15972235233329   -2.98566182125271    0.72305063664739
H          -1.62032547597946   -0.15329623457415   -1.98185645777703
O           0.59744616984187   -2.92937764077217    1.50155741517177
H          -0.31476776366404   -2.95152728627133    1.12932392301913
O          -0.98236128554170    1.32952894835852   -2.44973972937075
H          -1.65179511199589    1.77640270686126   -2.97075914553914
O           1.80990067594193    1.55560829750456    0.72849373748751
H           2.67749839541887    1.94001738759162    0.85944572361125
O           1.65842986752112    0.59166915020561   -1.68006652757285
H           1.17369883353720   -0.20043402336206   -1.35336584502723
H           1.01622832313071    1.03494799331567   -2.24670296918324
H           1.80313436918427    1.20627935530346   -0.21293706888443
O          -0.86825536500283    2.27443133166960   -0.01830193567124
H          -1.27732730417048    1.44267398785835    0.30663593178023
H           0.04216138940017    2.25816865070439    0.30734802622507
H          -0.94879918655184    1.79927048120475   -1.56936791785988
N           0.46602819071984   -0.35795957054821    2.13256279802412
H           1.13739679264913    0.28507951912292    1.66110377368650
H           0.68558897107830   -1.38169397647536    1.95011610267081
H           0.39549542075356   -0.16043364009390    3.12534467076967
H          -0.47528489013320   -0.21871519745019    1.63193034242347
