    26
        -50.46271482  Gyration_radius:  2.62461001115 Dipole_moment: 2.664
 S           2.59073038410308   -0.21696432968512   -0.17531519031000
O           3.18711310719396    0.98445355348057    0.34689961565985
O           1.88492737512987   -1.02037812415741    0.79703679790589
O           1.73118787890864    0.05168798462897   -1.34393878760600
O           3.78593917306766   -1.11592943356739   -0.72829288642594
H           4.45366489986785   -0.47398215311413   -0.95180761776769
H           0.36377829348518   -0.68189098743852   -1.74662755291012
O          -0.52831882626114   -1.07217890850702   -1.94108975682335
H          -0.49006178856527   -1.38273858629776   -2.84660957719058
O           0.55761080311767    1.65628566410975    0.33143483190816
H           1.35263994629722    1.99575621429582    0.75959978143808
O          -3.34959722939512    0.86457194712351    0.91350231752313
H          -3.78844592050191    1.68978231575176    1.12290433257686
O          -1.84338723619765    1.24287705899010   -1.22205616056368
H          -2.93444540923344    0.98913673531136    0.02259095506700
H          -1.07857644036576    1.69709440614215   -0.84901216127004
H          -1.50033635882887    0.39333315378319   -1.55500202598530
O          -0.39413127043394   -2.27087328930834    0.51819111097255
H           0.94312576029066    1.09646553354730   -0.38208881466190
H          -0.60601005617798   -2.05857210549290   -0.40708430720703
H           0.55488677997631   -2.03109937955225    0.61876062006761
N          -0.98697808946934   -0.05956029727176    1.76725566913478
H          -0.32765556906954    0.60307390538834    1.29161822889507
H          -1.96853819249367    0.26535614736534    1.59928911023452
H          -0.83890012596521   -1.02492449578389    1.30409981361761
H          -0.77022189844757   -0.12078252977963    2.75574167375134
