    26
        -50.44238944  Gyration_radius:  2.52116828819 Dipole_moment: 5.661
 S          -1.58025032250575   -1.61595553410535   -1.19089751405546
O          -0.84860567460304   -2.82872833473593   -1.36630205612524
O          -2.99808569865928   -1.64221748639739   -1.15682203992110
O          -1.08548209074883   -0.93046551293698    0.13543398182033
O          -1.07454786030491   -0.60779494394681   -2.26681590767697
H          -1.35630170135272    0.31456909607560   -2.01311044194915
H          -0.09120041926708   -0.95117235471476   -0.00516663057961
O           1.30813703878985   -1.34042625815977   -0.63686820851301
H           0.95409284265645   -2.16524367098767   -1.00013406930028
O          -1.61360528888332    1.78824396345819   -1.42723469115458
H          -2.45892662930539    2.12585822465455   -1.72816150872787
O           1.05215563391329    1.51523003499017    1.58254602151090
H           1.44735217812957    2.33717080075115    1.87750325071722
O           1.23725919883062    1.41163916154796   -1.05852535049644
H           1.36026553607671    0.46488814962418   -1.21925316959810
H           0.37769745737671    1.64742504684614   -1.42742461370186
H           1.19316625158984    1.48338931954506    0.60144087570810
O          -1.65043857843624    1.55008233399419    1.17836272431359
H          -1.65977853228567    1.76469047537460   -0.42642953470674
H          -1.85136495242573    0.60671639235235    1.17508925577303
H          -0.71233440985237    1.60195507864019    1.45316539109105
N           2.06034469541831   -1.33223086545934    1.90985743343172
H           3.01464630048372   -1.38914423297684    2.24171546650945
H           1.74555016260981   -1.51691249456110    0.23936804428617
H           1.48680193797649   -1.91958795287233    2.50200932404658
H           1.74345291476754   -0.37197843600296    2.02665395729092
