    26
        -50.45730951  Gyration_radius:  2.44889670276 Dipole_moment: 7.980
 S           0.21868731983813   -1.80539962616153    1.59613322639091
O           0.00828680881961   -1.94199395238662    0.12153959077937
O          -0.05277171512232   -3.00673784172096    2.30216046589571
O           1.76605244898033   -1.46480485905412    1.71262231483817
O          -0.46039479157866   -0.60764024175523    2.07144147908770
H          -1.63510075605669    0.19417013683782    1.43856445646659
H           1.77353606484580   -0.49969810652343    1.59403594466869
O          -2.33051762174120    0.76032529660444    0.99642682346279
H          -2.97602666394098    0.95783187877549    1.67575289372386
O           1.88572442493689    1.13989036153249    0.96474500518243
H           2.23814186324680    1.69434157363097    1.66152590679867
O          -0.35867921852443    0.81171343014302   -2.46144624392207
H          -0.64191944206662    0.93904325696345   -3.36697452342333
O          -1.97518952656031   -0.76631440617635   -1.22913655231159
H          -1.35193041573587   -1.36260048407503   -0.76442984978572
H          -2.35733371461623   -0.22064354579863   -0.52015791384504
H          -1.04464082384479    0.20076195666100   -2.03365384088938
O          -0.27410948497235    2.22161313013308   -0.02418508768919
H          -0.30968578066922    1.93575199098410   -0.94879642777735
H          -1.06072445560174    1.82557938376127    0.39778216503137
H           1.03019914922721    1.57215043454136    0.67400043529850
N           1.61401052449586   -0.50832239559223   -1.19508843607125
H           0.99756867586907    0.02977555482866   -1.84233217977955
H           2.32191826981612   -1.03669705246228   -1.69167612442295
H           2.03446615097514    0.13082559804443   -0.50765809783832
H           0.94043274998050   -1.19292147173492   -0.62119543986925
