    26
        -50.46271453  Gyration_radius:  2.62455516679 Dipole_moment: 2.669
 S          -1.75584179239182    1.92486931523129    0.04616266523261
O          -1.66787703929082    2.59404574036741    1.31749495309697
O          -0.58960859017555    2.06015325334236   -0.79691781232644
O          -2.12591303950638    0.50405445132109    0.19041460057526
O          -2.96760566325851    2.59890693344769   -0.74086757034095
H          -3.53371146882768    2.91050424736856   -0.04052529475590
H          -1.62053173782222   -0.73594786202354   -0.69086119792756
O          -1.23415360813577   -1.51159438287152   -1.17568507365230
H          -1.97906752676667   -2.01654409257182   -1.50425826610721
O          -0.01860684886892    0.47634461074982    1.71365494605804
H          -0.16405718195788    1.32699259917743    2.14486204456741
O           2.83142070015373   -2.11883001344016    0.53990662247427
H           3.30326194479066   -2.41091382084143    1.32056560763940
O           0.24071927523400   -2.31461572566811    1.01150713751217
H           0.07648374439860   -1.53369022772767    1.55330867605306
H          -0.26774970203893   -2.17050111965334    0.19231837163330
H           1.88175776393190   -2.36290331548593    0.68173047737258
O           0.55640724366511    0.24050162089333   -2.28431286438932
H          -0.83950405531106    0.38661226923049    1.17604000689466
H          -0.02708002327610   -0.52053061559630   -2.12182135666511
H           0.05527067426154    1.01648399810617   -1.94532659419909
N           1.99329221465927    0.33869099778714   -0.10977951617122
H           1.49903962802841    0.26107289305494   -1.06785884505383
H           2.48501405745574   -0.56052787506491    0.10706150044395
H           2.62976493190490    1.12773908815999   -0.11979688267418
H           1.23887608914404    0.48962704271103    0.60298364470899
