    26
        -50.46383706  Gyration_radius:  2.47244478357 Dipole_moment: 4.067
 S          -1.60359220521795   -0.19688293906934    0.21850948395349
O          -1.05922190737500    0.83687753406748    1.09670237908047
O          -1.60713710122699   -1.50254230435958    0.82981590323235
O          -2.89248092416680    0.19909066713940   -0.34994468832875
O          -0.66260036525902   -0.23929629831389   -1.04322463069407
O           2.62138963159128   -2.20706822752278   -0.34205584288146
H           3.42511587324959   -2.33769879595049    0.16415463445917
H           1.88284076404625   -2.43904145981633    0.25486315146310
O           0.00627589716987    2.60786361310124   -0.48317560665810
H           0.83473697029728    2.15521258946073   -0.68906631905449
H          -0.37254105885240    2.08978081291355    0.26890478747847
O           1.26225936985060    0.05981956605485    2.16236746735304
H           0.36016382630895    0.40225419666863    2.01264142845415
H           1.16652486869853   -0.90277429973728    2.20321207281626
O           0.64195839051072   -2.58940302117698    1.50418035139305
H          -0.22367248165323   -2.19566642644786    1.21663614350370
H           0.41888470841088   -3.43639271280106    1.89331138320955
O           1.75151734106334    0.33532098104321   -0.41277058070044
H           1.70789832554179    0.35478262826966    0.57943259569487
H           2.19589038579309   -0.51488681277087   -0.61056644995047
H           0.30031779393497   -0.05305530858787   -0.79165467558206
N          -2.04074518143897    1.94026556065012   -1.96736110143854
H          -2.49895318192947    1.19724889312494   -1.27106105405874
H          -2.68715620478971    2.69224893530407   -2.18478103463346
H          -1.16753934654910    2.30220200283483   -1.45222222898473
H          -1.76013418801770    1.44174059594008   -2.80684755913339
