    26
        -50.47304645  Gyration_radius:  2.48612747563 Dipole_moment: 2.180
 S          -1.95964929717621    0.45350190541958   -0.67804338152089
O          -1.89597396340332    1.03550011054316    0.65780911483659
O          -0.70557987658002    0.58495093620979   -1.39484008738457
O          -2.48372086092330   -0.89679178667730   -0.66192309081446
O          -3.00644338200959    1.32642044113009   -1.48843032036285
H          -3.83536712807381    1.05391647182150   -1.10923591006308
H          -1.45255179449667   -1.99213507505178   -0.10100581339160
O           0.12734456771554    2.62372006131132    0.01789598709408
H           0.00167786544323    2.07086244387356   -0.77736463504694
O          -0.76067982861713   -2.58212459683001    0.29554003354529
H          -1.18509321150379   -3.42845580481583    0.44505064246598
O           3.08906842353569   -0.36666650281788   -0.62231672078586
H           3.44843099976524    0.12511858781622   -1.36224070652301
O           0.95721103683000   -1.51354494545598   -1.59398639060073
H           0.51749806638396   -2.10615422691268   -0.96562480090358
H           0.35281661811168   -0.75089362317561   -1.67596424398617
H           2.33206560281590   -0.89734167537147   -0.99970484049166
O          -0.26029521366738   -0.53914510829023    2.03386836321704
H          -0.68019863416501    2.41178673318328    0.51787887105382
H          -0.96079025143921    0.03274121144624    1.65379703283599
H          -0.33068815774609   -1.38212838176305    1.55109390715590
N           1.76143851493504    0.95487971942184    1.26404960624540
H           1.21394421284991    1.72965981930992    0.78418995531947
H           1.02747043473913    0.28028383628247    1.64574590533555
H           2.35280876344458    0.45124407028993    0.54836352239754
H           2.33525651319534    1.32079537909976    2.01539799039167
