    26
        -50.47304681  Gyration_radius:  2.48614218133 Dipole_moment: 2.176
 S          -1.28511842216747   -1.26188263881794   -1.12402957593649
O           0.03955396031327   -1.84687365899540   -1.29752319944780
O          -1.48302095165667   -0.73838112123228    0.21418888949561
O          -1.60768831132647   -0.31732578844684   -2.17381477419432
O          -2.31685451279798   -2.45704632499754   -1.27062084900413
H          -2.29969048606615   -2.62649583770451   -2.20662655590416
H          -0.83554063393757    1.08526987034592   -2.05182556565396
O           0.35081781150594   -2.25274894419588    1.30395754107988
H          -0.49140912463404   -1.76234019114596    1.23828398156557
O          -0.28339336156665    1.89714736854496   -1.91055277706543
H          -0.39109136076679    2.43366008177418   -2.69750224233509
O           0.49618190466066    1.81178358715645    2.55567415400402
H          -0.00525471283542    1.60226046662334    3.34508643172328
O           1.73205158694391    0.19669240888000   -1.20851435899543
H           1.19001681007772   -0.60456245871812   -1.37093032951277
H           1.16685843435951    0.94388578256461   -1.47482447012980
H           0.50120271791282   -2.48437415025758    0.37096338468531
O          -1.29837290507130    1.90143648961700    0.66492430936964
H          -0.18480439822584    1.95467230648449    1.83943991122578
H          -0.93966082484129    2.17035915493130   -0.19437102019523
H          -1.50805158623758    0.95364802276099    0.55770052265825
N           1.91151622399049   -0.11651817601162    1.39574086551598
H           1.40616097498999    0.65843466397670    1.90534613501890
H           1.92667177493265    0.10564821503576    0.35180202898385
H           2.85438041822639   -0.22886967153334    1.75079526846864
H           1.35453898417328   -1.01747948660713    1.48723231458347
