    26
        -50.46539901  Gyration_radius:  2.43473494549 Dipole_moment: 6.436
 S          -1.19510042981748   -1.43308833029218    1.42365430959955
O          -2.00532035238588   -0.55464535549595    0.58222152087185
O          -0.89475765340202   -2.70503947880840    0.84674430378948
O           0.01499095904120   -0.72591699063523    1.86944176349374
O          -2.05990703082022   -1.67296589955982    2.73078123275092
H          -2.40962556248504   -0.80864193068810    2.92515130262923
H           0.98913913468214   -1.37559717414017    0.74836867724362
O           1.51751928708392   -1.68285001783663   -0.02892472074308
H           1.48354122029203   -2.64037717003928    0.02897125741291
O          -0.00478069616441    1.25567019303879   -2.36900976331549
H          -0.14799638103378    1.38379342476093   -3.30693565153527
O           0.79827413786129    1.74689860809895    1.44104712108414
H           0.55397752329724    0.86511593238968    1.80073416331389
O          -0.72276031679635   -1.12135960755565   -1.65949615592723
H          -1.36032166999609   -1.00776703700652   -0.92593911148505
H          -0.33993224681365    0.33217530658937   -2.15572641993582
H           0.03342633433553   -1.56865067144542   -1.25034737457465
O          -1.40037353410220    2.00263394204433    0.03115956618093
H          -1.09166634329506    1.94459204676141   -0.88277828497349
H          -1.74155461477370    1.11132927534896    0.24860545700301
H          -0.04095246744342    2.05588081523283    1.01076240646940
N           2.03623813954560    0.92183103930673   -0.64248684855009
H           2.05952019782182   -0.10349618359018   -0.52139367544723
H           1.58264552296349    1.33768061757223    0.28609297857138
H           2.96406020976187    1.29343557403630   -0.80935592000737
H           1.38171663266993    1.14935906191354   -1.42134215394070
