    26
        -50.44672457  Gyration_radius:  2.50525800249 Dipole_moment: 2.604
 S          -1.59314133961286   -0.63890075866650    1.46634968883543
O          -0.62746521418092   -0.24633118107722    2.46658284292524
O          -1.56988085329998    0.24525503291766    0.30072486039375
O          -1.51714513202784   -2.03321819113567    1.08919273921499
O          -3.02999169173023   -0.40916026834252    2.10980752068520
H          -2.96088645103727   -0.88724274790008    2.92959129761769
H          -0.59706970145155   -2.11431282490572   -0.24401275713850
O           0.02886910353715   -2.18310003673157   -1.00526290776381
H          -0.31731172678426   -2.87822888077913   -1.56752973563040
O          -1.07696167441383    1.88066401171571   -2.23683075340941
H          -1.84534882858066    1.37071925419975   -1.96165066138682
O           2.14132998219926    1.30519967267294   -0.09993002504225
H           2.82468913796064    1.79067307692327    0.36346262547193
O           0.81622290929773    0.07706223830855   -2.32938482305486
H           0.50467061615270   -0.73098834602503   -1.87694717477500
H          -0.37743145307082    1.20331492077203   -2.44997825039547
H           1.49931216406857    0.45135001917551   -1.76052469620285
O          -0.20507148967323    2.27638515090358    0.07680013382506
H          -0.78050229979370    1.43859663729694    0.36456358098898
H           0.76896318083336    1.93836522825145    0.03258350937120
H          -0.53140721052925    2.32518629932372   -0.92050755554744
N           1.70841935194260   -0.91667570952565    1.09539367390242
H           2.41545993964264   -1.36418112746758    1.66442347159851
H           1.39522347917639   -1.58663399775328    0.40007629473827
H           0.90316852581162   -0.71154201584702    1.69384822475876
H           2.02328666556008    0.39774455368305    0.39915887600702
