    26
        -50.45730961  Gyration_radius:  2.44893099118 Dipole_moment: 7.975
 S          -0.28444237737165   -1.98854862962894    1.34857290871061
O          -0.29466999864101   -1.92046722838842   -0.14557832611492
O          -0.83058770049504   -3.20086220383236    1.84595329145072
O           1.26253416133028   -1.92275374218666    1.70508840366111
O          -0.84135262612677   -0.75705431588996    1.89174408765582
H          -1.78099147561891    0.29529521030280    1.23260626929722
H           1.42824300636512   -0.96482759500794    1.72342547525862
O           1.87113183566616    0.69625378936629    1.34195855870844
H           2.19755387028412    1.10266661481124    2.14534694883365
O          -2.31413463451594    1.01450822259662    0.78785172799921
H          -3.01881504849697    1.23198061630378    1.39875146225440
O           0.12797613842086    1.13696814135363   -2.35235999686478
H           0.00184373128256    1.41165282872018   -3.26070628615520
O          -1.86488349648465   -0.28566818586175   -1.56110695667243
H          -1.41085166738391   -1.02602940553033   -1.10754992444969
H          -2.26150012296907    0.23044785675640   -0.83802967762935
H          -0.69528152310695    0.60172623957410   -2.10193357039924
O           0.06224446890512    2.22596399281297    0.24512090039167
H           1.14034152625427    1.29393593080246    1.00752898635262
H           0.12038495699346    2.05763323117675   -0.70678250045568
H          -0.82729908010864    1.91970079590926    0.50662084462315
N           1.67856537495603   -0.62613802390217   -1.03927862422143
H           2.36682409985786   -1.20207947660534   -1.50995686597647
H           1.24899650889799    0.07687493214885   -1.67946378228482
H           0.83548905976189   -1.25292547000621   -0.65476716319666
H           2.08268101235322   -0.14825410579648   -0.22305619078035
