    26
        -50.46026521  Gyration_radius:  2.4661188174 Dipole_moment: 6.811
 S          -0.22397630650553    1.60789078983472    1.56407186753792
O           0.89559847840048    1.95425441152074    0.66983984191146
O          -1.09776461395137    2.71172456875022    1.79869997139788
O          -1.09305312259518    0.54312082468614    0.68704442580949
O           0.20776282903952    0.82565525837165    2.69581759166024
H           0.83043467510164   -0.57522411946056    2.28549749145342
H          -1.43864605706560    1.11089898856512   -0.00884138222449
O          -0.69386469782643    2.34917315885863   -1.28497606065323
H          -1.07549249896043    3.22822820547747   -1.28135882268067
O          -1.20777354470675   -2.15570602951259   -1.72257051934026
H          -2.14473736993750   -2.16891654733505   -1.92210240215089
O           1.24686169482756   -1.43252973583854    1.98892898329870
H           1.79585202522459   -1.71718088530715    2.72116056884606
O          -1.13796387419573   -2.20122544882660    0.89218017412532
H          -0.25153747774527   -2.24707665597354    1.28724104113440
H          -1.38513663748150   -1.27173925873023    1.00511534517893
H          -1.14105788970183   -2.28847940980917   -0.73649036971055
O           2.13132698691748   -0.14127785074075   -0.21166927289266
H          -0.01187522000017    2.34929758464602   -0.55877410326542
H           1.83585483452122    0.72095320290962    0.17343599321203
H           1.92459148939781   -0.79005266808996    0.48930049238597
N           0.39790169604955   -0.07770368182908   -2.12978752833667
H           0.83905128410130   -0.11556479000390   -3.04267137119559
H           1.15720415617537   -0.16857407295923   -1.34567689627309
H          -0.07651876857328    0.82709301858290   -1.99782747515251
H          -0.28304207051551   -0.87703883764922   -2.01558759403364
