    26
        -50.45423378  Gyration_radius:  2.4449672559 Dipole_moment: 1.977
 S          -0.74683460125529    0.53272411523383    0.60293996331203
O          -1.87205052245232    0.31045925137389   -0.31243798121610
O          -0.30694504013017   -0.76380017213016    1.18783702934899
O           0.40318673156073    1.08542196964055   -0.15961320771157
O          -1.10767373143305    1.46586064127714    1.69043018562265
O           2.33378783889656    2.05693498645483    1.28978156485021
H           2.24236531032358    3.01048573096227    1.25757420283421
H           1.64264844857180    1.70667684166208    0.66620581952702
O          -1.45132501306309    0.27087358179593   -2.82462792174704
H          -1.57430556953632    0.43154694499093   -1.83949779872233
H          -2.32655984708988    0.33297213103749   -3.21084281572503
O          -1.63144051573631   -2.33266310703899   -0.29808193577898
H          -1.03054995116572   -1.89118747595768    0.37520361125383
H          -2.29978658639641   -1.63815891299880   -0.40652930725213
O           1.68578406157080   -0.76288878372365   -1.34495248191326
H           1.18495576270949   -0.05830446662282   -0.82343907729393
H           2.22737298999528   -0.27907092346896   -1.97190202857114
O          -0.29336913008024   -1.93532659994068   -2.36250152531345
H           0.59469798885580   -1.55218126030394   -1.97173280578199
H          -0.86062412262885   -2.22754643330150   -1.49221223660881
H          -0.77725270158398   -1.09147464791248   -2.69801756307245
N           0.83543860956597    0.66175742437589    2.99658920059264
H           1.64075555963632    1.17409269958559    2.57778068982207
H           0.89403373527438    0.54871957241213    4.00115363725158
H          -0.08964332918662    1.17391997203126    2.59508001278013
H           0.68333363478063   -0.22984307942895    2.47581277951520
