    26
        -50.44619982  Gyration_radius:  2.55315198831 Dipole_moment: 7.612
 S          -0.40676595972444   -2.17108370527472   -0.98420684690668
O          -1.49512406230021   -1.50343878749648   -0.30621279754458
O          -0.75218815795456   -3.11912634264888   -1.97504458203209
O           0.51435193961916   -1.04948448441917   -1.56927797961540
O           0.52569001960682   -2.82641815158892    0.05144329320972
H           0.66649390373256   -2.25930420412200    0.87658414584060
H          -0.16163714506317   -0.45592018752623   -2.04420838981493
O          -1.45933891459162    0.25399679518756   -2.43812481760527
H          -2.04085235296052   -0.25333861784454   -1.85856989976544
O           0.84785017857938   -1.46578321190653    2.21318118517586
H           0.66947851531561   -2.08266696395380    2.92567395270464
O           0.21417868035005    2.19604656581657    0.87458595763130
H           0.51041618774176    2.79420825924865    1.56162283691759
O          -1.20562750749132    0.04548547329379    1.86096426762048
H          -0.86587177719252    0.88626051269129    1.50478682980451
H          -1.51138904553219   -0.47165655082124    1.09146430585784
H           0.05429881553963   -0.84205848636262    2.17500123132981
O          -1.27202711253252    2.68734159291166   -1.34735742891844
H          -0.78484362630954    2.54847327822299   -0.51313671316743
H          -0.76329792357427    3.31242303041826   -1.86596526243017
H          -1.46026215891871    1.17659635216039   -2.08737426739720
N           2.14771214653435    0.47941789921742    0.35325063458374
H           1.78519498795384   -0.03451979995729   -0.44592571087439
H           2.14759140730618   -0.16490392588994    1.13729773376303
H           3.10781548188730    0.72930163379156    0.15297337791358
H           0.98815346999422    1.59015200691115    0.65657494376247
