    26
        -50.46275691  Gyration_radius:  2.5548305304 Dipole_moment: 4.413
 S           0.10690512641711   -1.66322509606887    1.70527819842615
O          -0.04536035426984   -0.91814731674550    2.93222269815154
O           1.39452256412539   -1.59796586190191    1.07116790311259
O          -0.15061018363806   -3.18769127189950    2.09600555847844
O          -0.96188111700047   -1.33961881294027    0.73144594750285
H          -1.52801657983029    0.19320359014229    0.63137462974058
H          -0.63251240165771   -3.11494418375293    2.91402336458880
O          -0.77990652411342    0.41831001934502   -3.32002660700430
H          -1.73111312094453    0.41095054165344   -3.43465964344249
O          -1.77519133030489    1.14583793585919    0.54302979633932
H          -2.65154553579757    1.23500269202241    0.91887941317944
O           2.08910670504988    0.77537295847565   -0.20399602926780
H           2.66714960211177    0.10720338943834    0.17748638877949
O          -0.21807622307382    2.24282731989061   -1.48854433852907
H          -0.57049416514472    1.22872519969037   -2.79378059648858
H          -0.80504038926439    1.97104907490036   -0.76416914920548
H           0.68129654254680    2.14076904555425   -1.16088576789224
O           0.62618082155185    1.42914736405162    1.87281387093884
H           0.50439973299087    0.61668909369038    2.40147653829660
H           1.57734491936386    1.10025295804190    0.58631929240799
H          -0.25636687630884    1.63677354180952    1.53056008385819
N           0.48659707929867   -0.97830396676469   -1.41606544242688
H           1.01439780497207   -1.80902650513020   -1.66189989268751
H          -0.02573815155090   -0.57618659714416   -2.23799411963648
H          -0.16882874122326   -1.21251408534416   -0.61996976460418
H           1.15278079571653   -0.25449103689469   -1.01009232260873
