    26
        -50.46026520  Gyration_radius:  2.46636686115 Dipole_moment: 6.816
 S          -0.85474111873575    2.07747655348396   -0.19639566059626
O          -1.80213457192064    1.23032601644513    0.55053512373426
O          -0.64953380390359    3.34624061113084    0.42431676964538
O           0.56194706966099    1.28481242019857   -0.04525544120325
O          -1.10037751542739    2.04320337827038   -1.61689014765361
H          -0.91928855225966    0.59690955585761   -2.24492558941207
H           0.74357044445374    1.40244816672616    0.89241347064284
O           2.37649320915193   -1.84313869855039    0.18422325579451
H           3.23677474178046   -1.52668986438583    0.46269828046251
O          -0.82948109158479   -0.33175100298334   -2.59961133797697
H          -1.32300327085284   -0.34071239175469   -3.42116431364393
O          -0.21084373607704    1.07989198627789    2.53773560172385
H          -0.28426014131273    1.82986571198680    3.12966439242204
O           1.80960701558211   -0.34186997530939   -1.88185402344007
H           0.98207353595898   -0.55871509022880   -2.34242402116630
H           1.57804806593884    0.44267308992308   -1.36352616619875
H           2.18033664915086   -1.37052996581032   -0.67165447154792
O          -1.74014821681074   -1.23760645495220   -0.22402230407327
H          -1.40670314364204   -1.13880683376694   -1.13724856313090
H          -0.94797665254293    1.18668443351238    1.87612914227588
H          -1.95491186316121   -0.31063848143500    0.04760588516015
N           0.12142176593759   -1.51062882289401    1.55032436916164
H           1.05261264678899   -1.63319583788259    1.06717671720762
H          -0.65400137692952   -1.46517389000801    0.77814900951626
H          -0.05916516249654   -2.28979076366247    2.17459017540485
H           0.09368509326014   -0.62128384020398    2.06940985690791
