    26
        -50.45004759  Gyration_radius:  2.53822696753 Dipole_moment: 6.004
 S          -1.92683450594823   -0.52511294150165    1.69655292557121
O          -0.71702735549425    0.26393426040567    1.61619128586005
O          -2.66458238214575   -0.47007586632694    2.90032084595679
O          -2.84137453646218   -0.13393230506743    0.50619210852755
O          -1.55461937269895   -2.00251371562003    1.40013764968240
H          -0.80755539036507   -2.05587667268274    0.73900619895585
H          -2.33983584057258    0.30517897536162   -0.23834896314047
O           0.47624499060152   -2.23345890493549   -0.19520545875081
H           0.78413601940525   -3.13937938250809   -0.13918251217843
O          -1.69402983308696    0.99071698439828   -1.52483436338666
H          -2.32543376219227    0.94383897207676   -2.24448886509176
O           2.13494487904211    1.44124294486996   -0.98417470642616
H           2.56132772386841    2.12772022345173   -1.49833251716973
O           0.43352827536160   -0.32169566369752   -2.17952100553950
H           0.43145864637593   -1.10347708599681   -1.60412303237278
H          -0.88360083297481    0.46849370674689   -1.81963818393823
H           1.14405450407853    0.25583045368605   -1.83333520495589
O          -0.01815135724654    2.43867523193576    0.17456168300282
H          -0.22680372817820    1.76838240323874    0.84960828975250
H           1.37885640958728    1.87928642806414   -0.50950096349890
H          -0.69718454465442    2.31140462332448   -0.50069961114820
N           1.97569753968125   -0.61421631847796    1.13546644887321
H           2.66507577035100   -0.84660072133595    1.83761357219431
H           1.14108055928623   -1.65049886065401    0.33384998073323
H           1.18881300716005   -0.15553188714630    1.59077910873673
H           2.38181510722165    0.05766510838952    0.49110525974265
