    26
        -50.46265141  Gyration_radius:  2.5616733285 Dipole_moment: 4.358
 S           1.89167017066104    1.25784183739605    0.70643826681898
O           1.98171626080266    2.17930988218387   -0.40174248749952
O           2.44235175175166   -0.05350010988997    0.46631860969030
O           2.72829771205399    1.93189350114342    1.88118259587639
O           0.51945763898684    1.14471605844905    1.23756295824296
H          -0.76172808221505    1.45974014727221    0.26342139779090
H           3.14936837539132    2.65234450854530    1.42404170370933
O          -1.51466206777755    1.55965622344431   -0.36736577276034
H          -1.90248752301650    2.41781226804926   -0.19337537284695
O           1.01106791685853   -1.46886088503071   -1.32810139306865
H           1.86110845402394   -1.22260080118090   -0.92956249932558
O          -2.50597589113097   -2.07709840341485    1.18766204027940
H          -3.17252662015492   -1.56412038338549    1.64672355890474
O           0.45517069741873    0.95351304912880   -2.21479292510740
H           1.12986249654773    1.45059509609878   -1.71216633621920
H           0.75303551188807   -0.64071861580296   -1.80400363404332
H          -0.38853638326184    1.26275120435274   -1.85425478625268
O          -2.20187100153387   -0.98691439401279   -1.20972472600787
H          -2.04893458629976   -0.05641325056090   -0.97548494076335
H          -1.42912472688766   -1.27480098180324   -1.70350563347709
H          -2.54635359046555   -1.79974347781604    0.24159318021491
N           0.09788857319456   -1.44133188720286    1.14996993603852
H           0.74592113076008   -1.96620560898281    1.72788944963331
H           0.36350136480045   -1.57647333432781    0.12514423380383
H          -0.89609977092368   -1.73228300084366    1.31235695270643
H           0.23788219852536   -0.40910865180918    1.32377561365535
