    26
        -50.46275686  Gyration_radius:  2.554604826 Dipole_moment: 4.408
 S          -0.42395094762017   -1.11950464218358   -2.06158252282348
O          -0.97867806747280   -0.09241279471332   -2.91076465397195
O          -1.30230806769754   -1.67483750164359   -1.06938552773199
O          -0.00796428720697   -2.30666326501720   -3.04170478769218
O           0.84765646502698   -0.68585981799509   -1.43665911891287
H           1.02896020168085    0.87361202099235   -0.97328244175137
H           0.05563773564393   -1.86906970928728   -3.88500876950539
O          -1.92645510368822   -0.09480207473881    1.13466405547002
H          -2.43957464288001   -0.80962311650344    0.74502058455943
O           1.06117961351473    1.79921195340624   -0.62877990164655
H           1.65070718307560    2.28391687476965   -1.20732485812827
O           1.98379066675379   -0.15876839556492    2.80049521173413
H           2.86767209419111    0.14522741690180    2.58985007275160
O           0.29686052940237    1.73478824896606    2.04779690718165
H           0.56974549542503    1.87647628865496    1.12658196392617
H          -0.60601993503398    1.40258734979701    2.01445757208484
H           1.39059297650384    0.62641381690470    2.70392790538753
O          -1.66976165023535    1.52417848724868   -0.91299237093722
H          -1.88566046876300    0.57359379116156    0.39735492673376
H          -0.80035991963782    1.94261557724450   -0.82246372022332
H          -1.59587332376668    0.96464237626304   -1.71042235600768
N           0.39543551394001   -1.40297124954923    1.03744568844947
H           0.69014418722021   -1.18542423500655    0.04538402854362
H          -0.52757892947937   -0.88782670771379    1.16136303279411
H           0.22862836334107   -2.40023465698582    1.11914886871498
H           1.09717430776087   -1.05926602541474    1.73688021100549
