    26
        -50.44238896  Gyration_radius:  2.51971061577 Dipole_moment: 5.633
 S           0.06031647062906   -0.82494721078945   -2.41175177145349
O           1.26186876914216   -0.30544340111542   -2.98032601817586
O          -0.52991978207113   -1.99677599835965   -2.95086857654281
O           0.31103482429070   -1.08108097909996   -0.88024844809485
O          -0.97389885652009    0.34011572638066   -2.36477794098512
H          -1.71525841044156    0.09825911964497   -1.74271851661152
H           0.70556359509680   -0.19920760346297   -0.60653756137589
O          -0.04394167156685    0.16140995715385    2.42493103485381
H          -0.38610985536140    0.42982634983876    3.27912343034354
O          -2.73618607461415   -0.23603017427636   -0.54970031955098
H          -3.50336709328643   -0.70157510427630   -0.88704290718782
O           1.35870523098347    1.23891914308123   -0.74372172377240
H           1.69144999642863    1.04023880659522   -1.63117039076617
O          -1.44391370762562   -1.78629762763404    1.11559308377249
H          -0.95101440175475   -1.17736806856879    1.70258846873138
H          -2.30705388160279   -0.84741395791616    0.11853644427132
H          -0.79193418550950   -2.08233097932876    0.46940310186411
O          -1.01926841220248    1.80594088470623    0.59047819174398
H          -0.28928118495141    1.86541980631499   -0.04273023142511
H          -1.74354068310149    1.35593627243873    0.13951715209124
H          -0.37948786948954    0.83169206111567    1.77569504945719
N           2.78213304247462    0.37841053429263    1.32694115110162
H           3.23766192591094   -0.50940725126404    1.15708359955370
H           2.06946965451704    1.06437594718827   -0.06984169797041
H           1.93733665476788    0.19447129373855    1.86417334603559
H           3.39863591587057    0.94286245358091    1.89737205007698
