    26
        -50.46291309  Gyration_radius:  2.57375192339 Dipole_moment: 3.758
 S          -1.46272086622450   -1.19660109384028    1.40004216071032
O          -1.47854204723365   -2.38667864414367    0.58441468926213
O          -2.41580168983928   -0.18553283548167    0.99901047118656
O          -1.85717585732912   -1.65274239698613    2.87212466246383
O          -0.11766417357298   -0.62531908881927    1.55589647951572
H           1.07526862755542   -1.25362029348161    0.61002897319863
H          -2.65074712959213   -2.15497342946471    2.71939014491310
O          -1.79078970864874    0.99429716238240   -1.29830140609676
H          -2.34097991141592    0.61150857989291   -0.58773551493069
O           2.21375102311024    2.54330559132631   -0.21751393718919
H           2.98957130829670    2.40952490425401    0.32908305905378
O           1.71856814224276   -1.58847428219988   -0.05838691846387
H           1.88341561639517   -2.50467319542307    0.16861580587526
O          -0.52975320179475   -1.33973737728296   -1.67302154915549
H          -1.33320286710081    0.21172460535665   -1.67133670058575
H           0.38107577069126   -1.48050546673507   -1.37259177766193
H          -1.05546080804019   -1.81850740997086   -1.00491932862593
O           2.16246816340103    0.45500182689434   -1.85783083430506
H           1.36953774234702    0.33091143652081   -2.38612793026128
H           2.26351388491840    1.86494738669532   -0.93194657472632
H           2.18763267266636   -0.28608357240966   -1.23073303940909
N          -0.23193544216234    1.83361087605267    0.62216275180689
H           0.71788672590568    2.19292307689471    0.35732831876000
H          -0.82341926021464    1.63862731706007   -0.25376251261555
H          -0.15319199293504    0.89856055485832    1.10380026397211
H          -0.72130470143631    2.48850577806938    1.22231024330624
