    26
        -50.44258729  Gyration_radius:  2.64597157325 Dipole_moment: 5.719
 S          -1.94258231448204   -1.31472162814978    0.29425319632116
O          -0.95627296126592   -1.49693710371629    1.33650554636841
O          -3.23162770472284   -1.85477066762363    0.50693298130061
O          -2.02338725674706    0.20775036075580    0.00233833954753
O          -1.37313752577708   -1.89725607245740   -1.02748643854761
H          -0.41734605402547   -1.64018704740156   -1.12639031933300
H          -1.30523234393882    0.63217408130373    0.59468607249440
O           1.18445210333395   -1.40610632670541   -1.22638099500886
H           1.54154425342468   -1.86301639112687   -1.99015934357220
O           0.52050928673297    2.96333613488066   -1.78034126157102
H           0.88029672234054    3.84641640917973   -1.87346212599226
O          -0.21905923777457    1.10808396308158    1.52365034121330
H          -0.17531982831784    0.25185794892348    1.96847464102141
O           1.71423314638540    1.13296253615502   -0.20556123352022
H           1.60716427758892    0.28280055756396   -0.65818939450094
H           1.39256419423519    1.81000563251012   -0.83796452539049
H           0.59548282482823    1.15900144774062    0.93554599272898
O          -1.61417663194482    3.08113507216492   -0.11531896355377
H          -2.20486570149299    2.36040702545624   -0.35635964255857
H          -1.20752385584719    2.81977783656095    0.71891919682452
H          -0.30774112748056    3.05769284763473   -1.26284386056252
N           1.57458422097087   -2.73081578277815    0.99580226019984
H           1.44431236812413   -1.93777767316887   -0.40526144091120
H           2.27427557343425   -2.40079235658025    1.64841388841686
H           0.65970769832899   -2.42841592426312    1.33518453672508
H           1.58914590408425   -3.74260485993603    1.00501256186233
