    26
        -50.44619980  Gyration_radius:  2.55311466397 Dipole_moment: 7.610
 S          -1.64742972114993    0.95676896535308    1.48925186156343
O          -0.41392106498983    1.67734287142105    1.26747446624580
O          -2.77162666786472    1.71544388957442    1.88976385642630
O          -1.94213401440085    0.15528213365408    0.17799682331674
O          -1.40919450858710   -0.18133617340459    2.49899589620671
H          -0.52229473953029   -0.64953445627589    2.37068980344465
H          -1.83339548924643    0.87588556568498   -0.53185107465669
O          -1.39167658108231    2.13893261265059   -1.27498049432806
H          -0.94180455224419    2.55248642459726   -0.52790747209884
O           1.63322938149402   -0.74404809592800   -1.55216826433115
H           2.36658566039364   -1.31679551531461   -1.77968302508576
O           0.87400890286048   -1.34995548611473    2.27595631709427
H           1.24534533361734   -1.34421929638213    3.16031254237803
O           1.96904856340648    0.51484990530859    0.88021171857356
H           1.20754069856674    1.11401926232021    0.99925059497550
H           1.39585884657531   -0.66615054845567    1.74655094017141
H           1.93592548683920    0.21515141213340   -0.04620974509761
O           0.53653418711276    1.32182434833182   -2.93655685879536
H          -0.68752916317433    1.91727509685416   -1.93015015030778
H           0.99304046681531    0.60697925842395   -2.45369548772277
H           0.21506838566004    0.94294031150681   -3.75603683392126
N          -0.23358749553546   -2.18559213014649   -0.37146408595914
H           0.91473734230015   -1.32746083780634   -1.15583188489207
H           0.12312140968454   -2.36732503557006    0.56106387519790
H          -0.99849334781139   -1.52364352808312   -0.26663709286175
H          -0.61695731970250   -3.04912093429676   -0.73434620553902
