    26
        -50.44258721  Gyration_radius:  2.64631122655 Dipole_moment: 5.720
 S           0.62507457068010   -2.22591539298452   -0.49660664729181
O          -0.10201336719430   -2.09186207302118    0.74667603657401
O           0.81925004569171   -3.52965760598046   -1.00755623803981
O          -0.08527754204261   -1.32401895296013   -1.54139192263973
O           2.01145816464934   -1.54724094632011   -0.32997410057426
H           1.90934639228716   -0.68440151653797    0.15410871672460
H          -0.82935983945030   -0.84972776103893   -1.02350643324463
O          -1.87783037789492   -0.23728256562770   -0.13207789075848
H          -1.69856689505536   -0.87123107270607    0.57423996853602
O          -0.45148492377450    2.78167726133723   -2.07193584814211
H          -0.93445288054074    3.55782210236959   -2.35875377446716
O           1.80721678380189    0.62567089486135    1.10508488308589
H           2.68144272504935    0.97460741245156    1.28834231062235
O          -1.77984680175901    0.58197299244936   -2.93267600785261
H          -1.13068138574943   -0.12013835723379   -3.04259138676885
H          -2.28268306503877    0.35350990089335   -2.14237558476419
H          -0.89597328715219    2.01252340089769   -2.48845298474083
O          -0.57891611347306    1.92344816875467    0.47825333850112
H          -0.49541249970049    2.34847948272252   -0.40160309025721
H          -1.46579286766841    0.63203753823441    0.16202784300624
H           0.30538106816322    1.58825081704336    0.68987028944386
N           0.87705132219103   -0.81362772917268    3.08181123274384
H           0.14598864473315   -0.43000045017505    3.66722497527338
H           1.48722732923582    0.15304196753324    1.94100140769470
H           1.49647913319778   -1.35723658355134    3.66895895577122
H           0.44237566679000   -1.45070093225620    2.41190193157390
