    26
        -50.44258732  Gyration_radius:  2.6462930848 Dipole_moment: 5.722
 S          -1.85318594082870   -1.31745493315694   -0.65047865265678
O          -1.95051372385938   -0.80492341867721    0.69873040883795
O          -3.01083658087569   -1.89580249822610   -1.21954002685818
O          -1.31865931744896   -0.16346280364046   -1.54065052577482
O          -0.70363285719912   -2.35990008926343   -0.69757739124961
H           0.07678885487438   -2.02491321496179   -0.17986136541986
H          -1.13436835256190    0.60873608014360   -0.89528238978229
O           2.33747648791288    1.78005857087985   -1.89736346558288
H           2.86862305610598    2.55628015026385   -2.07986619061729
O          -0.92018514063861    1.64999946936920    0.17199592829977
H          -1.41569834838942    1.13633378307082    0.82274394812499
O           1.29017921200306   -1.60042436525709    0.80916342350062
H           1.94337681020949   -2.30101973297140    0.85528562421563
O          -0.22798131910492    2.31895921793496   -2.58445964519832
H           1.44357647593624    1.96901726751223   -2.25497471981029
H          -0.64353448019468    1.48257111297076   -2.81733695097519
H          -0.59672316248730    2.56604567789811   -1.72855317762478
O           1.58880977300215    1.16436824382352    0.61569115768300
H           1.61278189979331    0.19715105387277    0.67064340729051
H           1.98131450588072    1.38818139745662   -0.25476418446192
H           0.05037114074208    1.54775200184550    0.41635334719212
N          -0.31489276565285   -1.60116144421822    2.87518360658095
H          -0.56849045162633   -2.46269712957749    3.34151033597720
H          -1.09251572348573   -1.33303338091488    2.26936756663463
H          -0.20665379007429   -0.88293874339776    3.58004609897044
H           0.76457373798508   -1.61772230277679    1.67399385270188
