    26
        -50.45977525  Gyration_radius:  2.6092788001 Dipole_moment: 4.011
 S          -1.14873698310668    2.23000731929292   -0.92809497466517
O          -1.79416119200421    0.93819448253954   -1.07277113143630
O          -1.50024089167795    3.21373966192779   -1.90140906695642
O          -1.63769411829743    2.81753113503419    0.48965252384726
O           0.29885854540313    2.04215710540297   -0.74017633514850
H           0.46042044029326    1.54220992476850    0.77419872328028
H          -2.13872671308726    3.56994159703946    0.19607402150113
O           1.48076079891841   -3.11893534343150    0.86230851430777
H           2.14497802672709   -3.71839656989476    0.52079341240500
O           0.85315107552683   -0.22224578257884   -1.83889590365133
H           0.67024735954930   -0.11322691106137   -2.77314882451689
O           0.54787690275713    1.14133806018471    1.67658255831388
H           0.55090187055523    1.87735405299142    2.28979314541748
O           2.36975285341093   -0.64809472780442    0.60082980316972
H           1.90703598853193   -2.22492700936934    0.89976004542396
H           2.15095113094378   -0.43885428377654   -0.31552481853765
H           1.83953991694585   -0.03444288987078    1.13640855003319
O          -1.74544801157674   -0.26379275412855    1.23191016476817
H          -1.95740962104694    0.28335704321666    0.43985389229253
H           0.64331603043484    0.66076572883330   -1.42975639457787
H          -0.99009947245084    0.19364275925805    1.64539684135510
N          -0.60549554688314   -1.97077765299236   -0.36359851709162
H          -1.28501316053187   -2.52677427786131   -0.87002494974849
H           0.11630537038015   -2.56613513563972    0.10565849443314
H          -0.12091808813048   -1.30326179985561   -1.01017013736157
H          -1.11015249159066   -1.36037373221991    0.37435036315713
