    26
        -50.44023242  Gyration_radius:  2.54258470145 Dipole_moment: 6.117
 S          -1.86737836002967   -0.81184789388196    1.47560396426815
O          -0.86180547016511    0.21319395868510    1.53953549713524
O          -2.99101236216593   -0.67289988612344    2.32814229405349
O          -2.31071619723831   -0.92611950674557   -0.02421307686792
O          -1.21682532902985   -2.19654585364531    1.69731475376192
H          -0.57566345246998   -2.32708002771374    0.93774015588095
H          -2.14741019058464   -0.03891955093255   -0.43538506834017
O           0.32376551060387   -2.50095780204374   -0.35036157528821
H          -0.07870794127011   -3.20619238176710   -0.86119091204794
O          -1.87007103455681    1.42821393270396   -1.06234579007412
H          -2.64945539965484    1.93082531541762   -0.81856113448161
O           2.25128073654422    1.08450924482754   -0.71333029661339
H           3.18372721371335    1.12317079562117   -0.92775369830475
O           0.28330113647708   -0.38601964933637   -1.92530782127648
H           0.29828950424379   -1.69694081876578   -0.93754240605523
H          -0.51784667454895    0.14149858355020   -1.84310278605222
H           1.01348567537797    0.16910265013239   -1.59210658652080
O           0.25019771439069    2.90764178443537   -0.47045493753033
H          -1.09895833796007    1.93446039753365   -0.69711518233041
H           1.00223584232217    2.28726411686742   -0.42400795616992
H           0.43859136247576    3.50798250100596   -1.19454385994730
N           1.86758409434895   -0.46219638212829    1.35236197737143
H           2.38185451000126   -0.41391306440284    2.22229018226636
H           1.81789561514036   -1.43353089505372    1.06754797812478
H           0.90870796290223   -0.16017061386639    1.54104970995952
H           2.16493387120145    0.50547102566323    0.11573659510770
