    26
        -50.45977525  Gyration_radius:  2.60923315841 Dipole_moment: 4.011
 S          -1.23108629923019    1.37738694315094    1.93422039342197
O          -1.06294744562916    1.93747740388911    0.60590644061265
O          -1.34544349979832    2.32274114285543    2.99808815804911
O          -2.62613994648802    0.57290663374275    1.90668629140890
O          -0.23074320601293    0.32101458796100    2.15657367907904
H          -0.76056002532212   -0.93727219326510    1.31661548997720
H          -3.13326223326237    1.09512457553895    2.51772332174886
O          -1.03913595049268   -1.67813591701750    0.71984834353534
H          -1.69389051943247   -2.17628307333154    1.21069887601416
O           1.73702756154584    0.88899516991973    0.59227780611835
H           2.08811034200024    1.72442203405866    0.90374263697213
O           1.87849818026022   -1.51080447153163   -2.61769600362259
H           2.79535231353534   -1.64906487021173   -2.85739395456458
O          -1.82251989577910    0.16093455153390   -1.13348907146248
H           0.98502057380067    0.67850444452865    1.20982000471044
H          -1.71269227754045   -0.65102375715755   -0.60482221268596
H          -1.75629705321182    0.89109547003402   -0.47456985926991
O           1.61553237814689   -1.94539446710742   -0.02827253607082
H           1.78315102982087   -1.83633319274667   -1.68637659823972
H           1.88927195435378   -1.10441242569153    0.35796048129366
H           0.67819192468779   -2.04251421521949    0.20940813650739
N           0.60658409897258    0.72410561674680   -1.86863216238031
H          -0.42557559983625    0.45468157990743   -1.68400663259618
H           1.10462332001395   -0.07804258501209   -2.32042875221713
H           0.64479226032279    1.56286569330771   -2.43640083612696
H           1.03413799458914    0.89702532112071   -0.92748143020261
