    26
        -50.45423377  Gyration_radius:  2.44484647006 Dipole_moment: 1.980
 S           0.15711339251864   -0.71485773508975   -0.81842177609066
O           0.90770626597327   -1.18544549695772   -2.00106121866774
O          -0.66983565871962    0.46503659877013   -1.19343230248388
O          -0.70113914153545   -1.77085864189758   -0.26911442723838
O           1.11430912904736   -0.26819702001947    0.22739272904686
O           0.02444219325100    1.39421374180063    1.81330725763972
H           0.63618801271417    1.41737964178766    2.55202588879606
H           0.44219634643775    0.76997420082534    1.13876835263458
O           3.07988416746191    1.20976942782561   -0.62351505344882
H           3.85025306981872    0.64063122838779   -0.65902583740421
H           2.36183999037886    0.65310792478392   -0.21889146223087
O          -2.85135034878574   -0.22453304746949   -0.10304858511312
H          -2.09438203804227    0.22616628203863   -0.58587064269841
H          -2.59855933689534   -1.15292416634325   -0.22573204143170
O          -0.82015617952080   -2.09771919112550    2.25458514342330
H          -1.24734778809878   -2.94924078749594    2.36167798144565
H          -0.62774257970867   -2.00920887104792    1.27146743999304
O          -2.08676760354191    0.09720881655221    2.24677520312673
H          -2.51794682717927    0.02249162589810    1.26022563323355
H          -1.64127915543404   -0.81929626081974    2.38918381524842
H          -1.27011714023706    0.73388060318327    2.12100774542326
N           1.33625430428893    1.16780368296931   -2.63909509584752
H           0.43292184741032    1.35452333296488   -2.15072838816124
H           1.26940303084398    0.04225982109341   -2.55098327987579
H           1.38627208477518    1.54936273567171   -3.57572159205138
H           2.12783996275463    1.44847152376075   -2.02177547726855
