    26
        -50.45423371  Gyration_radius:  2.44480290018 Dipole_moment: 1.981
 S           0.82247741146640    0.71149028980762   -0.15083397984532
O           0.92930071406959   -0.52352799199806   -0.97543229813995
O           0.12808357177708    0.34110869041078    1.11017696857879
O           2.17679090906664    1.21162313931415    0.16397499510826
O           0.02762112592241    1.71900052857295   -0.86261740046945
O          -0.78818545999892    0.04320978255120   -2.75097951173807
H          -0.59860514169693    0.98370988176283   -2.60768613640614
H          -0.09171271987786   -0.36651796687346   -2.15417840033908
O           1.55577034294429   -1.02139501913978    2.80619684538392
H           1.82532040172505   -0.40524820917153    3.48906622176160
H           0.94490593273024   -0.50562054956826    2.21455697283394
O          -1.70753468234936   -1.36400841512447    0.67504167161790
H          -2.21982873228174   -1.33806520639363    1.48578880557038
H          -0.94046314470496   -0.72431998473882    0.82202015161323
O          -2.41044700254690    2.07379663399671   -0.21408775741536
H          -1.41560842637722    1.98361658162462   -0.33054609380376
H          -2.65000832164737    2.89784472805816   -0.64144396471609
O          -2.78267699484762   -0.19667714802429   -1.27653191037448
H          -2.40571300637011   -0.78232244252553   -0.49997419069611
H          -2.78539713919231    0.74799777018460   -0.86871012809649
H          -1.97913053009839   -0.16312916037418   -1.99626260819314
N           2.93023593664407   -1.11885344194987    0.52449763252788
H           2.81929986461288    0.00133051393849    0.41585021653876
H           3.83825107519286   -1.51019273138966    0.30613884834419
H           2.59063751209129   -1.33991156464888    1.48484008171967
H           2.18661650376079   -1.35493870828358   -0.16886504135328
