    26
        -50.44847526  Gyration_radius:  2.51428477944 Dipole_moment: 2.980
 S          -0.76394533706938    1.64339625974437   -0.00066838967489
O          -0.75564297420716    0.98520441994501    1.28265350442131
O          -0.50620507839831    3.04244477311666    0.01836550135807
O           0.27231654178563    0.93474388026239   -0.91508479846085
O          -2.09494857340755    1.34875614419755   -0.70771383769392
H          -2.22371294217248    0.35017885609926   -0.76578689927116
H           1.10571386043158    1.56232185890210   -0.92396847833902
O          -2.42980856020305   -1.20780507684128   -0.72290068524357
H          -3.35411249591722   -1.37256052976764   -0.52598778593101
O           2.13246466796451    2.54596447638878   -0.55193612686979
H           1.51934533561687    3.26617131820550   -0.35311005961311
O           1.18306606421603   -1.64618923606200   -0.22382399910134
H           1.03365739082477   -0.73530560073636   -0.51327280487131
O          -0.98662797467662   -1.67567381790510    1.33045410540700
H          -1.90459660395505   -1.46806661442474    0.11397750502223
H          -0.11357140736385   -1.84173113479258    0.90271909167246
H          -0.94411603083132   -0.73984768518126    1.59669026274454
O          -0.50023285629861   -2.77848484954716   -2.07909185586512
H           0.83227907554779   -2.18834918959251   -0.95251961872506
H          -0.83284851416989   -3.67025835005619   -1.96471876272139
H          -1.21608836603690   -2.17619800570246   -1.82641164556307
N           2.12951872176077    1.10528307646827    1.66959270357240
H           2.41018513739643    0.15661612938845    1.44771543058088
H           1.11742512864545    1.10083003072125    1.77847886342553
H           2.53914245556104    1.34527344706982    2.56365268252351
H           2.35134334506000    2.11328542009591    0.32269608716769
