    26
        -50.44847536  Gyration_radius:  2.51424417077 Dipole_moment: 2.991
 S           0.99786493128682   -1.05786090765730   -1.08422058811205
O          -0.00634699391245   -1.75466035151330   -0.31848733941763
O           1.17937123457999   -1.50651706810667   -2.42207183243827
O           0.64405556338554    0.45434790441093   -1.08515429594056
O           2.32791682035832   -1.09262364435691   -0.31720742882797
H           2.18506249241699   -0.71488441484253    0.60675134785680
H           0.21760373433349    0.63607657964217   -2.02008240352422
O          -0.49519441227511    0.48593090703683   -3.29611101812494
H           0.01354927852561   -0.27317927154445   -3.61094375791753
O           1.88124565288409   -0.22765176542985    2.07092478379690
H           2.37432758651255   -0.79016154530351    2.67155250165896
O          -1.15113551206735    1.44919721895185    0.85302880301919
H          -0.61046342005335    1.22233165221117    0.08357844452972
O           0.93763767685178    2.42972117058687    2.34792604056301
H           1.45350035918872    1.62451176327045    2.19108052344108
H          -0.58040305844719    2.03497560892975    1.38128491463844
H           0.86158390538104    2.53105299185809    3.29814508559783
O          -0.59837967012582   -0.83524160786435    2.11871631813205
H          -0.54450014493597   -1.39240765238948    1.32181917722092
H           0.89734122935188   -0.47997316283423    2.18011937566555
H          -0.99576750577893    0.00710821389860    1.79435626954104
N          -2.30074097979048   -0.60088528495378   -1.69348629982635
H          -2.61081686294869    0.09856827349892   -1.02824279561524
H          -1.32842921468765    0.11599103373499   -2.88492448440986
H          -1.64285950249020   -1.20641191533438   -1.20690919746413
H          -3.10602318750941   -1.15735474626257   -1.95144212391631
