    26
        -50.45509196  Gyration_radius:  2.70253434403 Dipole_moment: 5.396
 S           1.15721273730311   -2.13552931087460    1.49411829424064
O           1.58364134274296   -0.93394088101257    2.21969316699115
O          -0.18893984771562   -1.99935406266098    0.98550345724942
O           2.12177302319532   -2.51977017028378    0.47845276357893
O           1.13212650177056   -3.31215650450859    2.56247250155324
H           2.05267685254579   -3.44985207171354    2.76974287393874
H           1.63017830080428   -1.67460714455518   -0.83054987499207
O          -1.81453444685022   -0.70825726655762   -0.72062833001583
H          -1.30836066261996   -1.27655236644585   -0.10823962028076
O          -0.49807752282690    3.10251557987563   -0.91210948561776
H          -0.79368598196205    3.86312657463611   -1.41306759632266
O           1.10771012516810   -1.09826223370223   -1.44216694992492
H           0.28582216720427   -1.58259151600024   -1.57467114443586
O          -0.57077956947090    0.96359210918226   -2.45825383492755
H           0.24389480940984    0.47856666364197   -2.62186023831049
H          -1.13502304883942    0.34906677158371   -1.94135032281466
H          -0.48331375575020    2.34725260936842   -1.55465212851860
O          -1.90643086871571    1.68199653500676    0.86269736821930
H          -2.11286831585386    2.13783464566980    1.67918550780749
H          -2.29692989797079   -0.09701931023382   -0.15445996264195
H          -1.56631601243126    2.35117822900867    0.22847214783267
N           0.67456886772937    0.72827683663830    0.48826225742786
H           0.78477719288000    0.10889526855394   -0.35932917974190
H           1.14012516479947    1.62109216228203    0.34600645988556
H          -0.33214647220959    0.89571855686526    0.67806966488969
H           1.09289931759755    0.15878029615967    1.29866218490180
