    26
        -50.44238899  Gyration_radius:  2.52023936378 Dipole_moment: 5.640
 S          -2.31667805520345   -0.71990828867742   -0.79102945057489
O          -2.14440771981778   -1.98799763722615   -1.42282541454388
O          -3.57787679801144   -0.36389861318540   -0.24818759879075
O          -1.25172449044652   -0.59481778341810    0.35958957843772
O          -1.82097312626528    0.36869845132611   -1.79036815305616
H          -1.67369961345784    1.22448848199508   -1.29993593149035
H          -0.41458741220067   -0.84787775140374   -0.13417642827481
O           0.51101866906602   -1.41595122667022   -1.28816772501563
H          -0.20150854322927   -1.97463033865378   -1.63146226690900
O          -1.21432490028555    2.48803362206001   -0.42094897347652
H          -1.93414422128633    3.11503314034143   -0.33300793407862
O           1.92693683104253    0.66308875055829    1.32423746515605
H           2.65468179188634    1.22731841170430    1.59027467782639
O           1.29762717311928    1.25364375496959   -1.18076563103896
H           1.75994960390314    0.86868232360558    0.36855099289320
H           1.02749216773651    0.39353555693385   -1.53374621691414
H           0.50934189548360    1.80947993203078   -1.16762736864192
O          -0.58206145178506    1.55357812224308    1.93990888295911
H           0.35028551911476    1.26606177722336    1.85975511879293
H          -0.97590613965064    2.20034987227794    0.50898289599396
H          -1.09552170142522    0.74192457422367    1.85158536297331
N           1.90474160845388   -2.32693446224233    0.78095722884377
H           2.82704623079736   -2.74127597361886    0.73824904768757
H           1.08765855090179   -1.94393053541084   -0.67287009035704
H           1.34756522507300   -2.86843971962318    1.42978928946645
H           1.99906890645063   -1.38825440138043    1.16323864212836
