    26
        -50.46862859  Gyration_radius:  2.47491989438 Dipole_moment: 4.029
 S           0.54177545562740   -1.07270865109409   -1.89746718091969
O          -0.66098041100595   -1.36405343905706   -1.09868218120125
O           0.73268949206503    0.34401864176565   -2.04688112648168
O           1.69362146821903   -1.80390230829738   -1.41172572350496
O           0.24117780989146   -1.66526417283457   -3.34007007671642
H           0.54358482163188   -2.56134405700410   -3.23623608683138
H           2.08900075356684   -0.98313842019761   -0.08548392729592
O           2.25385740083001   -0.53018032279845    0.77786171400376
H           3.20656114533107   -0.48359774413939    0.87542193562194
O          -1.41892228986715    0.32982835998262    2.30724899546482
H          -1.87334515669304    0.15655107547745    3.13179114232013
O          -0.18363037504364    2.57142493913924   -0.90742370373568
H           0.28851959904955    1.95958218550800   -1.50275790634981
O           0.86787070105176    1.78779968529143    1.41237603506096
H           1.41700102575180    1.02398714539624    1.16551685220595
H           0.30531556672600    2.50742549033311   -0.05382048425849
H           0.11203696794702    1.42325418080065    1.89231070421374
O          -0.10683956636917   -1.76019653376839    1.49699792532767
H           0.82287176390355   -1.48545196420444    1.50364832247677
H          -0.92811568093020   -0.51246215904869    2.07016435565999
H          -0.34354683782858   -1.79054542000621    0.54867889681265
N          -1.95375855122679    0.78468156281116   -0.32092464626436
H          -2.89281916847480    0.88743858012460   -0.68740787497542
H          -1.48967944491563   -0.08599579545713   -0.70895681544086
H          -1.31037055709031    1.62243728251745   -0.59772270150295
H          -1.95387595214567    0.70041187875239    0.71354357630989
