    26
        -50.45509195  Gyration_radius:  2.7022213965 Dipole_moment: 5.399
 S           1.54950484055192   -2.35933920479849   -0.40222142249129
O           2.04013629964904   -1.83721939240635    0.87796718769211
O           0.12424278033888   -2.16508004543529   -0.54430622015306
O           2.31663641237943   -1.84249529075882   -1.52207290474506
O           1.80202285975542   -3.92819956481556   -0.36629838786899
H           2.75178436178523   -4.00602263795598   -0.40119687992018
H           1.53051069651254   -0.46033192113837   -1.89640834166010
O           0.86639428949731    0.27291017592722   -1.92075944283680
H           0.06398418024238   -0.14928818883949   -2.24554404530277
O          -1.87609047712932   -0.38926665040388   -0.80257431623888
H          -1.22767787111649   -1.11909336094087   -0.77007349621070
O          -0.84526965276506    2.83332121794876    1.39795224576036
H          -1.27577999950573    3.67449446780928    1.55266266374829
O          -1.09526477882812    2.18599789827857   -1.14965112071089
H          -1.51076513082607    1.29817893138727   -1.10152040834020
H          -0.91286332213047    2.67282567398505    0.42167266934418
H          -0.30177273435913    2.06307468102922   -1.67972722884865
O          -1.79641564687934    0.39649906184269    1.95508324376816
H          -1.62608553305072    1.36136187826617    1.87996972674190
H          -1.86453788872471    0.18774489263271    2.88717802179832
H          -2.27433765851943   -0.36866786451847    0.07365643477468
N           0.71291397288160    0.35685704685560    0.76615670332570
H           1.08750432316039    1.20131843674619    1.19128846073908
H           1.31491538714513   -0.51357358187033    0.95549219684343
H          -0.24527210104747    0.18967659902162    1.12879345227343
H           0.69158238114033    0.44431674217320   -0.28551879171299
