    26
        -50.45509195  Gyration_radius:  2.70289217504 Dipole_moment: 5.394
 S          -0.80316097652317   -1.12941635278142    2.49287511219861
O          -0.83513085546341   -2.26877110823432    1.56934750541080
O           0.30095113572809   -0.24232547169735    2.20413780870807
O          -2.08664033459041   -0.45230900434980    2.55473357365701
O          -0.54290239432286   -1.73778247545985    3.93807078613757
H          -1.35107450937640   -2.20316220711413    4.13706636420279
H          -1.97746610964430    0.64597270258269    1.35031432403467
O           1.38522958734344    1.47983458493835    0.44897640727208
H           1.05797477393341    0.91873879045563    1.17847705408810
O          -1.63360726972661    1.21027150513542    0.61366829609221
H          -0.95803299883540    1.75442892914174    1.03217561562672
O           0.48283595098271    0.10647201750964   -3.23620963689370
H           0.67145453043453    0.44247996961942   -4.11280868012147
O           2.24707250373218   -0.58179482658259   -1.34899574561661
H           2.08882911548815    0.96880129126180    0.03589280795275
H           1.78562513226582   -0.32449831085523   -2.17768858658522
H           2.76066051284408   -1.36773114626376   -1.53745605652736
O          -0.19098442732949    2.11831435742983   -1.66499185224091
H           0.17393087472370    0.88845865652129   -2.71032344256902
H          -1.05854871841675    2.11651562975469   -1.24900639507031
H           0.44775710122173    2.02993466119892   -0.92508698404126
N          -0.39328754322351   -0.88083114057767   -0.54375224187549
H          -0.84388652690511    0.01344712196925   -0.21010587609389
H           0.63039548404499   -0.74543444820282   -0.65093571472398
H          -0.57167279942927   -1.58746540244020    0.24684787456214
H          -0.78632124891106   -1.17214831306684   -1.43522230759342
