    26
        -50.45212782  Gyration_radius:  2.45270060315 Dipole_moment: 5.977
 S          -0.24801250153084   -1.37256350753814    1.82980983911905
O          -0.97684801048087   -1.51259382241987    0.58560771166655
O           0.21610167669189   -2.58246708905719    2.40469906349297
O           0.93289868368941   -0.39142547530082    1.58151804805370
O          -1.08887478546648   -0.56036916687891    2.82078271865820
H          -1.18261947319861    0.34170100680983    2.37815101872985
H           1.55830796892624   -0.77235917384386    0.88175997521919
O          -0.37820575788716    0.85101974712998   -2.41388760158874
H          -0.26722730292624    1.35785491163603   -3.21853694780313
O          -1.33019020628524    1.65344931913854    1.54819655927258
H          -1.98658579841236    2.21121164976192    1.97098812770014
O           2.38643852494037   -1.36886028598728   -0.27256578240571
H           2.69150365373511   -2.23617923495279    0.00183086537788
O           0.31260894448283   -1.74000062668736   -1.77332613370755
H          -0.27357884959779   -1.84494423845259   -1.00266959335484
H           0.05101063991016   -0.89229665518698   -2.17453351995287
H           1.66922762275942   -1.52946880962098   -0.95926351326164
O          -2.35105398731844    0.50878016825880   -0.53221575021460
H          -2.05484075351581   -0.35799636049787   -0.19973983393393
H          -1.75819565761033    1.30594059886556    0.70565035586956
H          -1.80095269053829    0.67654505713161   -1.31750985359212
N           1.24979963195954    1.71960558420940   -0.50382749155019
H           2.01906546819469    1.05978590108664   -0.47528748848965
H           0.24951123482731    1.23172872565015   -1.73177402123374
H           0.72120170187475    1.58991636309500    0.35355524689340
H           1.63951003220357    2.65398540386770   -0.48741197897285
