    26
        -50.46507302  Gyration_radius:  2.55388450114 Dipole_moment: 4.282
 S          -0.32962139861764   -0.93584920444661    0.11472409187724
O           0.61436379918646    0.04566551293111   -0.43741687973023
O          -1.54920988117745   -0.28135977095168    0.56702926725927
O          -0.58753951259557   -1.98132683843009   -0.86843667865169
O           0.36126588176011   -1.59239648652929    1.33713564139147
O           2.31520564386765    0.49102038876958    1.54720896692111
H           1.74007458157416    0.42997794734964    0.75622021648445
H           2.38421602781771   -0.41317165944563    1.86580937054403
O          -1.82442113432207    1.37057114457882   -1.43495380773223
H          -1.85922282177568    0.80800456854529   -0.62395674822792
H          -1.04659953231579    1.92201530981559   -1.31421592531095
O           0.67719145928746    1.68541049572520    3.30131026613527
H           1.18074953377127    1.89461506981110    4.08935170131468
H           1.32574041339814    1.36214009802341    2.63453784964002
O           1.48124952891464    0.08269531216190   -2.93005836665765
H           2.24319382095574   -0.49650181945131   -2.97972078421942
H           1.25764124985378    0.15110759556622   -1.97245915641060
O          -0.96068133079635   -0.43157614455511    3.15888360154859
H          -0.43925563788503    0.38659705560771    3.32622673200683
H          -1.57512689026845   -0.20519454896372    2.44255597513568
H          -0.12336770567442   -1.23003380568104    2.15685174973577
N          -1.07802571364075   -0.62136275772148   -2.99112831793055
H          -0.95120496803417   -1.31936744048790   -2.18163866977208
H          -1.49974591571212    0.23686665491260   -2.52944509125615
H          -0.10791267223452   -0.37151715645240   -3.28977233537465
H          -1.64895682534894   -0.98702952066328   -3.74464265870996
