    26
        -50.46862764  Gyration_radius:  2.47476582793 Dipole_moment: 4.058
 S          -0.71103379033364   -1.41559549315138   -1.59266798230887
O           0.63030840463876   -1.46323263610836   -0.98559062282529
O          -1.72561827530554   -1.22912991201065   -0.59197753885986
O          -0.75943171097124   -0.48711625406869   -2.70287715444005
O          -0.93393279129140   -2.85307594573277   -2.22977920080461
H          -0.53252745621183   -2.73881456227985   -3.08477079747336
H          -0.79202202017419    0.93832498320007   -1.95701390111929
O          -1.84141717016983   -0.48042052469146    1.96247814448878
H          -2.09593583808935   -0.79721592660897    1.07562846168074
O          -0.70818443017729    1.80369014897190   -1.48607966946052
H          -1.28710937708332    2.41349661938710   -1.94675011177304
O           1.90403182491743    1.16604605337481    1.56795007389079
H           2.71868490914904    1.57130745517043    1.86544822041544
O           1.86239044880238    0.92104239494141   -1.01767410098837
H           1.53462424208980    0.00638781083115   -1.12794990940252
H           1.12267322574720    1.47748192737152   -1.30570364713511
H           1.95772437725640    1.12015811730716    0.56723647896428
O          -0.84192109230680    1.89481680568352    1.28337109261226
H          -0.87555503117528    1.88415483719938    0.31142799689325
H          -1.66772373594317    0.48179067845198    1.83749998536095
H           0.09402543074299    1.82204174934529    1.51414814371269
N           0.60871283485138   -1.22583684241054    1.62917785241358
H          -0.42365809912586   -0.98036082079247    1.88711707240741
H           1.19605528784256   -0.38675093696493    1.79677723033676
H           0.94978126934563   -2.02883678962388    2.14452838302332
H           0.61705855297493   -1.41435293679257    0.58604552039846
