    26
        -50.45212783  Gyration_radius:  2.45274427816 Dipole_moment: 5.976
 S           0.22840749556784   -1.40368438852806    1.80824831510250
O          -0.97122869516157   -0.65782470569526    1.48647876977184
O           0.02035674795269   -2.74011633046946    2.23327467802312
O           1.16364778916102   -1.35931688245617    0.56643410094340
O           1.06190000646657   -0.61046751619777    2.82050190949697
H           1.30905230180276    0.23329607954785    2.32497397075993
H           0.71066991671550   -1.80174200079135   -0.22409314753762
O          -0.09829486869009   -2.38132133031884   -1.40047997297713
H          -0.34939620425549   -3.27849648378881   -1.17119385250685
O          -1.19540070992341    1.60469041264580   -1.63968363279776
H          -1.35683218109901    2.15152129445840   -2.40883394606197
O           1.54112278475469    1.52584321577520    1.48477791553643
H           1.91108254359328    2.20084728777759    2.05759941175785
O          -2.15235254159196   -0.88145043443774   -0.92866840549792
H          -1.94667061589537   -0.83380076894271    0.02212450283564
H          -1.97975403611063    0.01450454154259   -1.26837162805754
H          -0.93950428765874   -1.83284799372709   -1.34285083057737
O          -0.96602919366836    1.99729780082413    1.07008616944434
H          -1.18210426033924    1.08764006769814    1.34485436261177
H           0.59391368679267    1.80876137219308    1.29345186812482
H          -1.15486520899825    2.02149045748146    0.11555117966047
N           1.26670772882270    0.60950203892970   -1.67338893922194
H          -0.25269955360509    1.27074521222480   -1.70297449713015
H           1.53627789195129    0.57553047674538   -0.69490715582454
H           1.17216869822935   -0.35094651863797   -1.98401167891185
H           2.02982477518447    1.03034509614903   -2.18889946696318
