    26
        -50.46862860  Gyration_radius:  2.4750163711 Dipole_moment: 4.027
 S          -0.85092021251005   -0.68388995833695   -1.96319702633514
O           0.46134008921387   -1.10237728256847   -1.44129861170211
O          -1.85473395438696   -0.73017268020408   -0.93549485838294
O          -0.76212053191714    0.56865665497639   -2.68481599891030
O          -1.23673341645362   -1.77404390615934   -3.05190103473417
H          -0.82694973183145   -1.40944710338867   -3.82928991878119
H          -0.62894816439654    1.64432000178219   -1.49590243015477
O          -1.92470875757589   -0.89085150846775    1.72324565191141
H          -2.19904996549838   -0.85064251360327    0.78791159493120
O          -0.44607385741701    2.27836314974789   -0.75950447284050
H          -0.93373596725266    3.07673012638016   -0.96946986873745
O           2.00453586642541    0.30821603500517    1.82597709953447
H           2.85848751336167    0.47920845605726    2.22335731495999
O           1.98296183996739    0.97440345815958   -0.68445740561024
H           1.54517081402668    0.20158183581387   -1.09355851057306
H           1.32493814286748    1.68362065888467   -0.74599507453978
H           2.07151748708226    0.60285808313957    0.86929997091125
O          -0.62187046510490    1.42885677238399    1.87508889200888
H          -1.62892496362363    0.02632088274237    1.93072413142310
H           0.29257902753432    1.16495582850606    2.04423340589460
H          -0.63685243099588    1.75730342737845    0.95973661971788
N           0.41829627259398   -1.77760465217905    1.09554773019008
H           0.42338297384157   -1.59605449309719    0.05106117048989
H          -0.57980238669667   -1.50831577991024    1.44716070661113
H           0.64516487086417   -2.74471391657028    1.29534209160970
H           1.10304991787547   -1.12728158646922    1.52619883110785
