    26
        -50.45509140  Gyration_radius:  2.70370667214 Dipole_moment: 5.394
 S          -0.94448645135832    1.04378170934475    2.48199235833224
O          -1.25126400825557    2.10675226361935    1.51859272937212
O          -1.14333398444039   -0.26751907117253    1.90734358750855
O           0.36897806164428    1.22068917553288    3.07633635442355
O          -1.99861666018881    1.19717505012440    3.66168308452460
H          -1.74144447418720    2.00856361328319    4.09163437336661
H           1.34787790507641    0.42609965038864    2.03749534489702
O           0.85925371073310    0.05987344450268   -3.16164159262866
H           1.22367668776981   -0.21008451803553   -4.00497474676725
O           1.68026296646840   -0.13097293588846    1.29019505383238
H           1.34629981611558   -1.01214759314958    1.48924821693804
O          -0.33113987285454   -2.04720007094577    0.06460004570877
H          -0.67124638362196   -1.50316856948941    0.80109295386413
O          -1.50899625112703   -0.62665362437945   -2.13071021856352
H          -0.99607950101471   -1.97573432515023   -0.62797270256542
H          -0.72482822202016   -0.46621202511697   -2.70123988930605
H          -2.27110530357330   -0.25841831191624   -2.57860591542911
O           1.95181454387939   -1.39096920224635   -1.24570756059048
H           1.16635317942434   -1.78015071090435   -0.80424033014909
H           1.34900521955471   -0.46539666537642   -2.47775139475122
H           2.44020042170323   -0.94878039415936   -0.54448636189606
N          -0.02473102791953    1.01264926453086   -0.45239965420911
H           0.41498195990595    1.59334842764586   -1.16191952598457
H          -0.58221386712503    1.58071092412504    0.27079114517418
H          -0.66184242899081    0.33497143842311   -0.91351787801845
H           0.70262395429228    0.49879304618267    0.11416252292709
