    26
        -50.45509185  Gyration_radius:  2.7029432525 Dipole_moment: 5.391
 S          -0.69031451038164   -2.66929348062054    0.73075735669337
O           0.52229576750989   -2.39888546727556    1.51080462847220
O          -1.53387113026970   -1.49922602520138    0.63742304039360
O          -0.37844955556214   -3.26037328111779   -0.55887702400884
O          -1.50559855965530   -3.76466070965652    1.54432828773390
H          -0.97376715207136   -4.55170436290155    1.46032676414360
H          -0.17087862236553   -1.95378305770892   -1.51770562971218
O           1.87850959837466    2.67404064208279   -0.19269565788754
H           2.20198769235527    3.53597261952964   -0.45597526665976
O          -1.79146622373733    1.00206771947411   -0.31114491514851
H          -1.82870476164642    0.08846545351919    0.03233566302300
O          -0.13989880984664   -1.02389934124362   -1.85470192138205
H          -1.05997100795874   -0.73946845401988   -1.84053513854894
O           0.17082142444113    1.80007988339548   -2.00647253314970
H           0.35784462232875    0.97495855984523   -2.46474960246089
H          -0.63074984253642    1.61867628455118   -1.47000006780852
H           1.29759254337599    2.36749562549801   -0.93570162396974
O          -0.00680809190626    2.13737247408936    1.62516082673945
H          -1.63402377585421    1.55432910599454    0.46162008740701
H           0.67499323102143    2.54617303665020    1.04725121873248
H           0.23585760831353    2.32301389627227    2.53273788887551
N           1.02133120749984   -0.13634689305497    0.40703142738594
H           0.59087694195226   -0.35078860551776   -0.53254950659042
H           1.98295746970669    0.17659779548320    0.30033332464226
H           0.47419837116704    0.60253865347989    0.88903122803847
H           0.93523555554300   -1.05335206145770    0.96196711503942
