    26
        -50.44619980  Gyration_radius:  2.55317793807 Dipole_moment: 7.611
 S          -0.03653548445144    2.19044171163504    1.02437760441216
O           1.20078984172166    1.71874727771086    0.44432985351636
O          -0.20736213617242    3.59075915556947    1.12271003948582
O          -1.19659034924400    1.53387018672829    0.20474048116676
O          -0.23742736843788    1.54962546512726    2.41024104985978
H           0.04293834236695    0.57885347641904    2.44538596194296
H          -0.91241950967476    1.73568169211536   -0.75098708187544
O          -0.06657895999307    2.04296154584382   -1.98914105725711
H           0.76414586457615    2.18773686168592   -1.51972518911172
O           0.54469970610247   -0.89730207090671    2.58144226991383
H           1.11177088360654   -0.92488276438613    3.35453711839158
O           0.13863237841316   -2.05879233060503   -1.17193509333373
H           0.21286228275654   -3.01381483717779   -1.17221577611094
O           1.99995585485329   -0.83871505336966    0.45926822712191
H           1.46999287596444   -1.25444392713603   -0.24464985492530
H           1.88577093022413    0.12490640834658    0.35217562431839
H           1.15626140780996   -0.96632425835698    1.78057282882970
O           0.19520022013345   -0.30220901814339   -3.24515671227712
H           0.06055160667808    1.22348704206471   -2.52438185263539
H           0.23086350598780   -0.96409231468632   -2.52876928770061
H          -0.54931200785134   -0.53470635876709   -3.80207629548374
N          -1.66350720785056   -1.34922772810295    0.61857308475132
H          -1.74568794210245   -0.34622919360814    0.47198819403416
H          -0.59298408662403   -1.81961054980944   -0.52291289572777
H          -1.20778280299376   -1.47513701358885    1.51654672452250
H          -2.59824781580232   -1.73158340459652    0.68506204411199
