    26
        -50.45966287  Gyration_radius:  2.5933558626 Dipole_moment: 3.964
 S           1.61224416317442   -0.73492514517289    1.66442235733443
O           0.62064756156381   -1.78092101826167    1.41808574258864
O           2.12398757127954   -0.20203697301273    0.42307294790910
O           1.13136724622371    0.26691766137184    2.59676820778398
O           2.83519513940472   -1.44770627922564    2.39049379218049
H           2.48950547709916   -1.59993421679766    3.26452821556724
H          -0.09897108991793    1.09022366887468    1.98159648023236
O          -0.78827376786664    1.66547639818193    1.56060056158361
H          -1.21597627554128    2.13185106541578    2.28049950633722
O          -2.67027063864973   -1.58070303651848   -1.22010578160033
H          -3.22069020901438   -1.59736833448292   -2.00410725962201
O           0.24641377169753    0.86980505788150   -2.14832005826280
H           0.77179760580172    1.02550466939358   -2.93375579107753
O           1.27893455009302    2.21691416715178   -0.20432117937793
H           1.77660681746988    1.42984979413757    0.10274574097528
H           0.65656017365146    1.44880546961461   -1.43195429384546
H           0.54975479428827    2.30970925624262    0.42920503692726
O          -2.18674372726118    0.95826016906431   -0.71194999915470
H          -1.47420856882397    1.09585233716762   -1.35102666000065
H          -2.63834467766178   -0.63453396703361   -0.92646016016935
H          -1.79571321267282    1.17023139803273    0.15319443654890
N           0.00482244704730   -1.62857631514580   -1.08332576854136
H           0.51933610954020   -2.33775728094432   -1.59398935623606
H           0.23826205947005   -0.67520511219359   -1.44563769706408
H          -1.03272545349106   -1.76860582745033   -1.16879401476291
H           0.26648214309179   -1.69112760628479   -0.04146499626530
