    26
        -50.44244536  Gyration_radius:  2.56286162395 Dipole_moment: 6.894
 S          -0.59584686339542   -2.35311729517185    1.20352634251682
O          -1.14316782000828   -1.60256296866212    2.29713392132784
O          -1.09715021796162   -3.64975634620539    0.94106209284956
O          -0.74358093463342   -1.45943742892776   -0.08472423140717
O           0.94759017373640   -2.44150507365332    1.35160799893996
H           1.30496893616056   -1.52122090108535    1.46350437822259
H          -1.20951290511748   -0.61987116332899    0.24974901005509
O           1.98267254374885   -0.04745063106830    1.28562901761020
H           2.89167009583820   -0.06843645216147    1.58941764772229
O          -1.92998881876936    0.53563207293122    0.95918406733413
H          -1.93784944223084    0.01078012697513    1.77626637646690
O           0.10552056279181    2.09588202387193   -1.79276698288983
H          -0.07755086457104    2.95384205636222   -2.17836393345707
O          -2.14668005730281    0.62914137901843   -1.80402029380302
H          -1.96797920297566   -0.31151603836919   -1.88439495935239
H          -2.43528548237406    0.76283385783961   -0.88954381025438
H          -0.72913988757473    1.57793170411866   -1.86888190256091
O           0.18693360047615    2.06846098871953    0.97553050865217
H          -1.20738955535892    1.21476626862770    1.07007063223924
H           0.85910258731006    1.42693189290457    1.25125024930010
H           0.28301251125907    2.16611351965029    0.01050978804714
N           1.76521184533436   -0.28056508300690   -1.29999781797738
H           2.49059040972263   -0.61748101583339   -1.91884744383970
H           1.00641450648618   -0.95452469917036   -1.29693998454769
H           1.99937698579704   -0.10434453404803    0.26927392086777
H           1.39805729360656    0.58947373967021   -1.67523460206353
