    26
        -50.45966275  Gyration_radius:  2.59329346327 Dipole_moment: 3.965
 S           0.05150921937045    0.31347817530434   -2.40996697366197
O           1.41026798698053    0.28735804266551   -1.87040578550879
O          -0.73416658473962   -0.78235225234334   -1.89156730054158
O          -0.56827569670469    1.61751920198045   -2.27011038576545
O           0.19329123026777    0.06915958558305   -3.97555678856584
H           0.54276260571476    0.90133917069739   -4.27855963146422
H          -0.79881408281681    1.98935830686658   -0.72784334963048
O          -1.02922266237912   -1.59295008142461    1.35444024637515
H          -1.45369161826824   -2.44326166592108    1.47269497362249
O          -1.03484830058101    2.17109292561411    0.21793324989406
H          -1.21352267314886    3.11148590134606    0.26741189571691
O           2.51676309783217   -0.13982097392110    2.18273899601088
H           2.72362442267284   -0.50440502631715    3.04420779528690
O           0.06711774247579    0.81324377706593    2.35383091256515
H          -0.23847321151913    1.38317187421147    1.62714832264733
H          -0.41456238884928   -0.01774599302856    2.24201196034354
H           1.67661373178833    0.37384108724890    2.29592665513332
O          -2.56252181238279   -0.12050813184230   -0.10870104804186
H          -2.05980794100670   -0.36381641588913   -0.91462652630138
H          -1.68121965878878   -1.03943238856289    0.82036620222280
H          -2.27963752039087    0.78539697510101    0.09375520986388
N           1.38121296450400   -1.38123797791336    0.09781811194493
H           1.39031349006628   -0.68847753243338   -0.72553689145752
H           1.75244849544895   -2.27069485011872   -0.21760892057970
H           1.96126351590721   -0.97491160795310    0.87358173494088
H           0.40157561854629   -1.49683011601981    0.44661734495259
