    26
        -50.44619981  Gyration_radius:  2.55315188729 Dipole_moment: 7.613
 S          -1.85152788603898    0.74055594246931   -1.36789127278959
O          -1.69999702988378    1.30255895703577   -0.04459899796278
O          -2.55201885621370    1.51752047128327   -2.31946548876144
O          -0.41368818915405    0.38584867598065   -1.87337718337806
O          -2.49606690595358   -0.65451140146520   -1.26856260206370
H          -2.15709414570976   -1.19553554249418   -0.48456549174345
H           0.08869815783357    1.25033794702561   -1.68590695448518
O           1.85398948695267   -0.51852438803194    1.38835127507173
H           2.29935942616857   -1.10814145512371    1.99793537966166
O           0.51482975761808    2.58984743897285   -1.07989395857003
H          -0.26392464026762    2.70934535207893   -0.52251122556055
O          -1.73615312775274   -2.04197081189220    0.76264202897353
H          -2.54718557479561   -2.33715445804007    1.18109656042517
O          -0.77618722289643   -0.04816505494805    2.07714380699679
H          -1.12679910762739    0.60101743820244    1.43785374346806
H          -1.35483970671265   -1.32380222234347    1.36186522085543
H           0.18796549906811   -0.07105607098149    1.93898904894391
O           2.52299814736023    1.98847415523407    0.57893919207937
H           1.27453341968231    2.45628574336613   -0.46406837809728
H           2.29551487427688    1.10882234543992    0.93530442309077
H           3.37572667107928    1.90290415296986    0.14987705224021
N           0.90894992859739   -1.93648736006906   -0.62499462572361
H           0.09965479564554   -2.42077173783587   -0.25031264970516
H           1.55350845565689   -1.07532701006899    0.60518992299239
H           1.44534239186207   -2.59844718950790   -1.17129299254502
H           0.55441137121550   -1.22362389742496   -1.25774584328135
