    26
        -50.46452136  Gyration_radius:  2.52859859019 Dipole_moment: 7.096
 S          -0.26085024222075   -0.48993947088815    0.57204542961655
O          -0.07077460844089    0.43823259112291    1.67294152561214
O           0.87851457527411   -1.40249540003815    0.45189310331755
O          -1.53336236531420   -1.16910602213942    0.56893359958147
O          -0.20432736913454    0.42863616015782   -0.71536174013716
O          -3.32883850908879   -0.91568243213788   -1.36094339938725
H          -2.75617139681487   -1.05418467144053   -0.57528457597295
H          -3.86497119091628   -0.14611647913157   -1.16629028149397
O          -0.36338931187327   -3.11710648621029   -1.13646823916322
H           0.22142595204046   -2.61196452723904   -0.53701287259609
H          -1.18575308570734   -3.21430829126216   -0.64725218857073
O           2.71091778436487   -0.01564992280915    1.59897689380329
H           2.28952488748663    0.13359091803099    2.44997207111981
H           2.11109575119248   -0.67423522498573    1.15341395167019
O           0.15105907001852    3.03187901153213    1.74025043434572
H          -0.11832139872692    2.08058685573775    1.75413633674989
H           0.20879360212350    3.30404651002695    2.65732168016833
O          -0.95932080981728   -1.00749748570263   -2.61238407595597
H          -0.49215353301925   -0.14514800511126   -1.54431628778376
H          -0.67817200014931   -1.89366404672782   -2.27265914362512
H          -1.92410566182033   -0.97630328752320   -2.44468686322045
N           1.86139499366399    1.90815314831547    0.05703806574902
H           2.49118210205896    2.35613446825654   -0.60023679187485
H           1.10032638790224    1.37714638883434   -0.42812629264658
H           2.35227926041466    1.18382626267305    0.68603973775002
H           1.36399713649772    2.59116945867387    0.67805994294528
