    26
        -50.46740499  Gyration_radius:  2.44312979 Dipole_moment: 4.852
 S          -0.50648385804595    0.51642983269885    1.91028265073184
O          -0.92529447830636    1.76211101572820    1.29657457926111
O          -1.31806306772510   -0.62231768383829    1.50852830711822
O           0.91456653943330    0.26128745486743    1.73577811415182
O          -0.75659897611599    0.67834411913794    3.46588654013525
H          -0.34430902805047    1.51269680011528    3.66570482967598
H           1.42664639452996    1.54463492709018    0.68811984672292
O           1.45857378623876    2.21518911253612   -0.01797922082811
H           0.59786418889898    2.64173444754963    0.03446888180739
O           2.26667815748845   -1.40233541670337    0.06991621113741
H           2.04067041179281   -0.82012473406191    0.81689870125066
O          -0.90520155693395   -0.42327637199451   -2.28010093979515
H          -1.28552011964891   -0.35748174408929   -3.15695130390462
O          -2.48070340080189    0.78536366156178   -0.57167296379891
H          -1.93232646793041    1.31090125268896    0.05117018800991
H          -2.82964260410120    0.08195540666632   -0.01575051288436
H          -1.49593370519615    0.10686453331345   -1.67730431476438
O           1.82378601274143    0.30501697625711   -1.89658181351966
H           0.90590735919431    0.12735337727818   -2.14558251868539
H           1.79827587906595    1.11643962499761   -1.34964632287185
H           2.31990207188058   -0.79702865168873   -0.71462215918500
N          -0.16853352264893   -2.14095960471136   -0.29324505540676
H          -0.40438922211998   -3.12637652319267   -0.27231788885147
H           0.90493209015053   -1.96535368330356   -0.15539201467938
H          -0.45393323419095   -1.69755656939718   -1.18421191516197
H          -0.65086964959752   -1.61351155949422    0.48803009432979
