    26
        -50.45499944  Gyration_radius:  2.50026861751 Dipole_moment: 4.587
 S          -0.16651503571602   -0.86941453057183    0.65851255654645
O          -0.14970073094794   -1.58956418805459    2.02023877054127
O          -0.60796142390140    0.51099127494001    0.86515529393918
O           1.18471624551908   -0.89363109539140    0.09765943377811
O          -1.10317119255357   -1.58194997687953   -0.20283117216585
O          -0.11684409827313    2.01554548215871   -1.14620830789051
H          -0.77894440997847    2.70724230116193   -1.07586380186549
H          -0.24651912175847    1.43454102035294   -0.33922362170903
O           0.64931068347417   -1.63629847781926   -2.29109135010972
H           1.03247892426502   -1.33456123718264   -1.41973979914601
H          -0.02524177535820   -2.26806497358050   -2.01432083879662
O          -2.77278965691318   -0.34393205181205   -1.69744401041973
H          -2.21795803023603   -0.78740929341580   -0.99412650827385
H          -3.39135505217348   -1.00782987720790   -2.00755675611012
O           2.21583910324420   -0.82251441654395    2.58148604302639
H           0.76149738762201   -1.37688627731310    2.39700841360926
H           2.33353977401335   -0.84316082500564    1.61972101488209
H           2.01521237774300    0.12182554166669    2.79710632172462
O          -0.69596508254667    0.36459935300205   -2.95829487593555
H          -0.06678530918750   -0.47447876888732   -2.76772145984011
H          -1.61549160364868    0.09570117645880   -2.58084193766544
H          -0.37893622409104    1.10459866994334   -2.29738308386715
N           1.21221339887727    1.66614934684093    2.74578297015413
H           0.47457659765191    1.35568031956382    2.11163694943708
H           1.68492674730845    2.44689805481081    2.30811078197928
H           0.76986749756765    2.00592342876664    3.59022896417681
