    26
        -50.45078045  Gyration_radius:  2.42199964847 Dipole_moment: 4.023
 S          -1.88943393375445    0.20055490047726    0.29859676389770
O          -1.12818959990902    1.33541530253237   -0.18478811154823
O          -2.84038342397690   -0.33918115961091   -0.60968564036898
O          -0.84558535552203   -0.91534198557094    0.65501001686195
O          -2.50211803737344    0.53596640214010    1.63977062600601
H          -1.83043178539692    1.16452174979813    2.14584912570534
H          -0.70897007229057   -1.39738835455465   -0.21795040909043
O           1.59569464729066    1.00915027285181    0.04960184478403
H           0.65054793256918    1.18180409114218   -0.08474518120535
O          -0.78589127033293   -1.79743521765010   -1.74765053446563
H          -1.74841533303680   -1.79979624724915   -1.81053011692333
O          -0.74556086197490    1.99580516093307    2.64165640984989
H          -0.50740102697657    2.54426484315075    1.88720547016036
O          -0.13195242454782    0.63210358842051   -2.59415081396718
H           0.77913071361795    0.92564059228422   -2.50359179719419
H          -0.50573224880286   -0.97455755938944   -2.21921915416524
H          -0.62703001320163    1.06296829806755   -1.87500065923574
O           1.09676926963397    0.15758116301875    2.51306628269168
H           0.00711868676876    1.34541050222965    2.76269037766936
H           0.55550691285254   -0.58838379174326    2.23533513578268
H           1.49641152375134    0.50886297762412    1.68101876078971
N           2.14414875658223   -1.47640205369674   -0.99517747728712
H           1.79619065264050    0.14431065044996   -0.37388975305284
H           2.83383494064092   -1.48216903521483   -1.73645922988481
H           2.52114314849637   -2.01273204830319   -0.22345475046541
H           1.32059819222421   -1.96097304211834   -1.33350718535196
