    26
        -50.46862838  Gyration_radius:  2.47479958989 Dipole_moment: 4.043
 S          -1.09891879291256   -1.92316153909447    0.37317740709829
O           0.01225216608468   -1.77993804643837   -0.58307252895095
O          -0.80208320978364   -1.26176195330708    1.61422686211209
O          -2.36759822971751   -1.56862463921065   -0.22846911792105
O          -1.19281925250935   -3.47917653600575    0.67711510473172
H          -1.76439812923671   -3.76982865250370   -0.02576138048203
H          -2.29472783688160    0.03822275026551   -0.26130618608596
O           0.95784126882515    0.52957177206880    2.50402881868396
H           0.23603173868274   -0.12591494830908    2.47137783434634
O          -2.18963730834674    1.01572039715614   -0.36711142492579
H          -3.04807104158778    1.39720807727724   -0.17508644525403
O           1.70304143413974    1.61817087545428   -1.38759092166833
H           2.16144428220323    2.06303928342817   -2.10060751893671
O          -0.33764892986692    0.27637558142287   -2.27166120642941
H           0.92631358002093    1.13863527459010   -1.80390424406459
H          -0.23876047362349   -0.57443949395784   -1.79988309432523
H          -1.10638252652219    0.69434012436322   -1.85426777007345
O          -0.02114816607937    2.31054528880310    0.78050617427088
H           0.58080457055933    1.32972231486190    2.06887039301616
H           0.61134050537405    2.29050378838631    0.04966458009816
H          -0.82610158800967    1.88027055997710    0.44457740581645
N           2.05202773590097   -0.42884838066395    0.37020078609268
H           1.27266120158041   -1.05225786158039    0.01283545576255
H           2.14352363976395    0.36370790682796   -0.29362556829423
H           1.71208517202216   -0.03556646983224    1.33065744721314
H           2.91892817988360   -0.94651549390369    0.45510913818709
