    26
        -50.46740503  Gyration_radius:  2.44310922538 Dipole_moment: 4.851
 S          -1.29503709501071   -1.36304781798047   -0.79828986079557
O          -1.15252604747224   -0.56276073790524   -1.99961093243305
O          -0.07140888199350   -2.05360703206954   -0.42055555552558
O          -1.85827262720638   -0.60717557732197    0.30915633605928
O          -2.33083081124542   -2.50992323540297   -1.14546503755801
H          -3.05762719091206   -2.03441546582046   -1.53490181317025
H          -1.94368226307148    1.00965755501386   -0.31136644580323
O           2.30928954583937    0.91649733066405   -0.15620485724024
H           3.11926584474462    1.35932709895164   -0.41242205974022
O          -1.74377287602868    1.84084150513655   -0.77875169710725
H          -1.48054563691083    1.55031835664298   -1.65728228116079
O          -0.72386069856040    0.48830333257452    2.51925321182571
H          -1.37611399556144    0.12131990578678    1.89644300434388
O           1.46235062765320   -0.54332828743639   -2.15956402941688
H           1.98587768328471    0.43238682478036   -0.96524746044531
H           0.48916175952842   -0.43832546277491   -2.24196414694167
H           1.55929257312776   -1.45265910357573   -1.86055852599211
O           0.19969360322838    2.44352728324533    1.00205235238596
H          -0.45184351394655    1.35444014573966    2.11851944104516
H           0.96619098341512    2.04616432729031    0.56544224814487
H          -0.51967878208243    2.43257084953362    0.33836367598534
N           1.21128327244900   -0.90190953441306    1.55496481940187
H           1.81709677326098   -0.21786439412192    1.06807555030943
H           0.70162931943762   -1.45521101882438    0.80979085039738
H           1.74652067814778   -1.51032671416074    2.16361605509878
H           0.43754774590000   -0.34480009355453    2.09650714832736
