    26
        -50.45004500  Gyration_radius:  2.53754076135 Dipole_moment: 6.016
 S          -1.87328720239137   -0.35263812049043    1.79493228403453
O          -0.57861335835049    0.27965957974136    1.66538424849384
O          -2.53571328203344   -0.23573785782168    3.03761037443713
O          -2.78808749146031    0.17925046056962    0.66036763500410
O          -1.70809842491946   -1.85704130882039    1.45176157199099
H          -1.03464490451373   -1.97705598617950    0.72422143393129
H          -2.27619235873794    0.61523451258031   -0.07969052130890
O           0.13627912409579   -2.26450026721306   -0.32627264368329
H           0.32314844530825   -3.20444850208606   -0.34373821164050
O          -1.62420537588361    1.30764315525173   -1.35752669550510
H          -2.29928491737328    1.38904510786232   -2.03315288959156
O           2.25359310270459    1.18547199656457   -1.06105321194571
H           2.74127472597802    1.83193254721219   -1.57258517928351
O           0.24665152515890   -0.25596266264822   -2.21286032959553
H           0.16546487386460   -1.05867985982047   -1.67302746629681
H          -0.91653207226588    0.69446839882679   -1.73142956336848
H           1.05291271894193    0.19586117131219   -1.89043557204042
O           0.34219501808018    2.41262817027094    0.28605047488859
H           0.07967689107430    1.74291952075842    0.94243868993692
H           1.59902519418686    1.69924012114101   -0.51652927542376
H          -0.38802848220959    2.41934927710326   -0.34643671772658
N           1.92778599184556   -0.93934910507275    0.96779978313537
H           2.61591759545314   -1.30187365938595    1.61378499366934
H           2.38807583292997   -0.29770219492362    0.32907558062571
H           0.90941453065672   -1.80782528221162    0.17934911356477
H           1.24127228986112   -0.39988923251970    1.49196209369176
