    26
        -50.45812146  Gyration_radius:  2.42452728558 Dipole_moment: 3.420
 S          -0.01991646983146   -1.79848061889446   -0.14731557904916
O           1.05563556928383   -0.91180595683584   -0.81360714854869
O           0.66221733449946   -2.84509999718099    0.53705131764032
O          -0.72709805012470   -0.85750202738814    0.84786901896596
O          -1.01508181237823   -2.17020764798173   -1.11692117022179
H          -1.94590277257212   -0.92778124725555   -1.56949162479745
H          -0.01547683581015   -0.29979998066724    1.40955150457362
O          -2.40308804386657   -0.10420415314323   -1.87880811696917
H          -3.01037355548905   -0.38209976236183   -2.56654734144602
O          -0.01160745470522    2.46189875200252    0.20727699997345
H          -0.04781849934900    3.40356649103627    0.37974234587466
O           0.96932385539574    0.54603514304697    1.97536497593970
H           0.94461335795550    1.29723849704901    1.35875742790269
O          -2.38442780593409    1.33401953034353    0.47740618980260
H          -2.11831776005475    0.56239055724235    0.99317351328053
H          -0.92729121844543    2.11148339754012    0.37549722242207
H          -2.59701309074094    0.97241708951828   -0.39884260165050
O           0.04945429360429    1.02357393304930   -2.09629863582485
H           0.66777749232192   -0.16534206377537   -1.39866054510783
H          -0.88809954773170    0.75971470504055   -2.16842395913797
H           0.09978670475023    1.68564758934953   -1.38011333658920
N           2.84253480076072   -1.19775171925093    1.39329745289924
H           1.79183481518387   -0.00459362324965    1.79035456906800
H           2.17719337540837   -1.93444368441523    1.15653661815632
H           3.36471292765639   -0.99377980824341    0.55034875600527
H           3.48642840034633   -1.56509339455084    2.08280212675440
