    26
        -50.45997505  Gyration_radius:  2.57047898485 Dipole_moment: 7.033
 S           0.18194109206515    0.51534548625833   -0.88517337557921
O          -0.71681149492980    1.64232098632558   -0.64086045253934
O          -0.38060989267173   -0.69130650106835   -0.07170221646031
O           0.08691481269459    0.05748663468962   -2.27743617288780
O           1.53689906757421    0.78104638876189   -0.46267028128817
O           2.25032028080514   -1.45676070121566    2.66728824479573
H           2.56218069247501   -1.43089711024408    1.73402517761540
H           2.09620526582990   -2.38069720960256    2.86948102688028
O           2.97651947141322   -1.34508527617036    0.08753381261786
H           2.41145165222905   -0.58519580350957   -0.17984960578856
H           3.87775403304634   -1.06934079196140   -0.09027607658813
O          -3.17852271021901    1.24452456741221   -1.34131616151369
H          -3.40289928493880    1.97322911481035   -1.92282362135714
H          -2.27754515073616    1.46232849474277   -0.97927151799820
O           0.57917300824730    2.33811385483598    1.60539676779610
H           1.43152336308539    2.12431282063454    1.20940192213108
H          -0.03418794519405    2.31575626255059    0.84987330711030
O          -0.06157956242393   -0.14321462997980    2.34741628804957
H           0.78774297575886   -0.58482633302691    2.58240336098732
H           0.13889406511992    0.81985489029580    2.29028977728346
H          -0.27690037761352   -0.49263178318782    0.94962704666066
N          -2.15400010367045   -1.05468784922250   -2.09008120894238
H          -2.01227571027099   -1.58649757594634   -1.23170627283779
H          -1.14558258703276   -0.61118893044810   -2.30337805455799
H          -2.51754358649935   -1.62940245321663   -2.84263359473613
H          -2.75906138415084   -0.21258658251354   -1.87355811884651
