    26
        -50.45812153  Gyration_radius:  2.42448949803 Dipole_moment: 3.417
 S          -1.71539163441043    0.51564635834994   -0.20636791209822
O          -0.90060591742660   -0.17403063336421   -1.32313826560655
O          -2.96327859299651   -0.16503015353947   -0.11384589095407
O          -0.87421564410728    0.30115205615726    1.06733537300026
O          -1.74307074442206    1.93634685342504   -0.42916697161545
H          -0.31022416266109    2.64348178052458   -0.18153552103946
H          -0.54393850922206   -0.70867077866999    1.13374839907290
O           0.02167069714078   -2.00436910349216    1.05882147485953
H           0.86544846020737   -1.81328549266127    0.61536141984481
O           2.35495587142538   -0.67896556979378    0.31013705088962
H           3.24301586975828   -0.96718633893589    0.52478971395186
O           0.61674479960570    2.98951130039622   -0.11842910599201
H           0.56586540349576    3.92156573524515   -0.33675149317414
O           1.36532783436681    0.89824548623453   -1.66776717740770
H           1.87201036163083    0.30344323607418   -1.08191152635744
H          -0.01074701630672    0.29033161519830   -1.52945989768467
H           1.26929266029835    1.74553083770821   -1.19157103405582
O           1.58143760489203    1.31825951463297    1.85556897850727
H           2.12764812687158    0.03606421261281    0.96323583315934
H           1.42427725001082    2.06363229311466    1.25277245393341
H           0.69642948302468    0.99750579557470    2.07071583707087
N          -1.86255563115273   -2.76277044373658   -0.60304181027459
H          -2.44506881343275   -3.57456711471199   -0.43970707097794
H          -2.42972213419270   -1.92873686078443   -0.44757189639322
H          -0.60963499063126   -2.42639923192130    0.39740067558438
H          -1.59567061171734   -2.75670537370058   -1.57962164624323
