    26
        -50.45997504  Gyration_radius:  2.57048207765 Dipole_moment: 7.033
 S           0.19708806911373   -0.40449639417215   -0.93783632179612
O           0.47415192760441    0.26824726402820   -2.21365555276550
O           1.33889377050203   -1.10902643391338   -0.40404394036812
O          -0.16941037984566    0.77392050375593    0.01674432850358
O          -0.99168817869921   -1.24970568574845   -1.03756693031627
O           3.15817635595420    0.40492354006564    0.73341060358561
H           3.97396063474905   -0.08716592065120    0.62286577855029
H           2.47261008276257   -0.11089652817063    0.25158279115649
O          -0.34294688658697   -2.62237274252296    1.17701225557003
H           0.59219788679702   -2.60436178217146    0.94421197511740
H          -0.78445517106026   -2.30992909996445    0.36770822777400
O          -3.10011875597803   -0.06038115767025   -1.95896106319820
H          -3.39794920248252   -0.59637317290632   -2.69619165863661
H          -2.36604512171368   -0.58009161599929   -1.53316893544818
O           2.03759145298199    0.32487554687170    3.16915791877454
H           2.09475746722042    1.21195578005954    3.52709035708077
H           2.49338786034882    0.35350027236673    2.29718193037157
O          -0.44026136497065   -0.20512713203539    2.30200451611537
H          -0.48944914395228   -1.16471400827599    2.08355069711194
H           0.43844465567497   -0.06707529884501    2.72673172855715
H          -0.30467634695462    0.40042201702110    0.98398141568841
N          -1.39814293038012    1.93439353710242   -2.10323415808133
H          -2.22934831453308    1.27855460925330   -2.13621097565184
H          -1.27908891033326    2.26560114634342   -1.14623668843339
H          -0.51780921293277    1.25820437601381   -2.26713550045555
H          -1.45987024329276    2.69711837014632   -2.76899279879841
