    26
        -50.45004587  Gyration_radius:  2.5377174632 Dipole_moment: 6.014
 S          -2.23690625043590   -1.33295750445496    0.27887967298910
O          -1.44762774806762   -0.34775728561340    0.98540224973097
O          -3.45053655023097   -1.74593352811105    0.87316404594397
O          -2.50886815934785   -0.80029153926637   -1.15263202849920
O          -1.34381253991979   -2.57919342294985    0.03855386929339
H          -0.39874053338740   -2.30485917466604   -0.13162272295408
H          -1.88861334869651   -0.06207406726262   -1.41690964309140
O           1.15704544862670   -1.96035206550577   -0.26243902096206
H           1.66723030976007   -2.76925287942300   -0.19828195916261
O          -0.96844763111588    1.09347255676295   -2.01379566254381
H          -1.13111477135059    1.15216828401095   -2.95663308473898
O           1.79437991697354    2.01707844201904    0.56697176093361
H           2.18541695275808    2.88718294126055    0.48125045194882
O           1.49390781581772    0.41622897940903   -1.61948785780381
H           1.44983081760287   -0.48830141591775   -1.26986921450759
H          -0.00137278114530    0.82988498612217   -1.90534807065871
H           1.74082173070269    0.97942239516063   -0.85792794672832
O          -0.83641756676293    2.24328745071980    0.52588187957638
H          -1.13036886299650    1.37835598016770    0.86325149086084
H           0.81165882206487    2.15889117764062    0.62222254308614
H          -1.03508442226226    2.20609837229919   -0.41877493530535
N           1.26621689726740   -0.56662928060571    1.90238067145747
H           1.56512866490446   -0.87260249463808    2.81851160719037
H           1.27701785239827   -1.45133080494453    0.62543288923215
H           0.26104123687609   -0.40498460724587    1.92473133532653
H           1.70821467994929    0.32444852503242    1.69708766938144
