    26
        -50.45481212  Gyration_radius:  2.63588882953 Dipole_moment: 5.268
 S          -1.14711042955488   -1.47485583585477   -1.78816339004359
O          -0.41098518823575   -2.70338163726274   -1.60137595483724
O          -2.25835621624904   -1.36518497077257   -0.83692822102875
O          -0.30000275360903   -0.29351290481944   -1.75300292024830
O          -1.79208992557211   -1.51441874870368   -3.23624441663453
H          -2.17763877842536   -2.38395259921218   -3.30235539997897
H           0.95849537911629   -0.81099941783522   -0.78854946908546
O           1.42067232855813   -1.36994062278719   -0.11885343680632
H           1.42950188341479   -2.23675799938158   -0.54225544005514
O           1.92384928763348    2.77108764559287   -0.39270492933068
H           1.99443146487859    3.72300473555371   -0.31817593222548
O          -0.47999174374742    1.16275602179857    2.12065921841852
H          -0.56844227955343    1.67417501905572    2.92510123604069
O           2.02018985803495    0.89455491351736    1.50162319755609
H           2.08984066955107    0.07790674404168    0.99078549016507
H           2.14402566643534    1.61437328797140    0.84318130966693
H           0.50675012801744    1.10449878529021    1.92465655384782
O          -0.65247776193451    2.11687252244794   -0.59598039392357
H          -0.61516897827959    1.30158356083140   -1.12897635412134
H          -0.83675608025577    1.83397550025509    0.30964856812572
H           0.97513923422071    2.57842991785904   -0.59250639962448
N          -0.85081069998596   -1.35380728130528    1.30662122425907
H           0.10357770801677   -1.47380396465455    0.87269712389109
H          -1.54503994560711   -1.37231495357857    0.47652005439139
H          -1.05774016014675   -2.09155564077365    1.97102516787245
H          -0.87386268663273   -0.40873206716486    1.75355350363869
