    26
        -50.44466315  Gyration_radius:  2.53393671561 Dipole_moment: 6.853
 S          -2.30861828634625    0.46673622538289   -0.43473750756665
O          -1.74865202345970    0.83726837428349    0.83485516336332
O          -2.91430072135764    1.48863652462922   -1.20838154260170
O          -1.13856483383550   -0.18688692774525   -1.27953005353637
O          -3.24225106642472   -0.73336525240433   -0.26706733776901
H          -2.86614326171068   -1.31353662681942    0.47655797897103
H          -0.47628226593826    0.53068688542643   -1.51573124159284
O           1.75842666528038    0.16186034219022    1.73702212183711
H           1.73350585143465    0.14406925835791    2.69459566252593
O          -2.16803060044364   -2.25936220352230    1.47543757414985
H          -2.35753687981091   -3.17284779417321    1.24969032226498
O           0.72996380634770    1.50138138447678   -1.79274735952384
H           0.79704568590171    1.70437436073067   -2.72721883382970
O           0.23220368986870   -1.75489551476203    0.54276296130337
H          -0.16307746901026   -1.25315064366981   -0.18572930135802
H           0.76892633697701   -1.10896360237619    1.04639408385628
H          -1.20780205647411   -2.10979766963226    1.26450423338580
O           0.46741706488301    2.30622558268522    0.92177633284100
H          -0.42065739326714    1.90953100394975    1.01658946543102
H           1.31232753583392    1.01067169771719    1.47151221545348
H           0.60742404133919    2.38664154454318   -0.02897433093549
N           2.61133050790316   -0.17875840533272   -1.05939913074542
H           2.32759414441347   -1.12927737059925   -1.26514675726847
H           3.56847232588189   -0.06056862352626   -1.36615329718880
H           1.50487920829555    0.88994145703297   -1.55351058800740
H           2.59239999371399   -0.07661403683990   -0.04737084346878
