    26
        -50.45514022  Gyration_radius:  2.75191858534 Dipole_moment: 5.665
 S          -1.25738407405710    1.37477820405268    2.22555025338821
O          -2.34287728620787    0.67966914143020    1.52225868048799
O          -0.12975898265785    0.51735127462248    2.48790558073036
O          -0.90696720678276    2.61027149111052    1.53807843241108
O          -1.85876112613265    1.80183277334806    3.63076986076907
H          -2.56970912573246    2.38408191188801    3.38017879464755
H          -0.24687667482687    2.38071671290964    0.12566882773654
O           1.03408352230331   -1.20440753282848    0.88431649868955
H           0.72159155475133   -0.66217361214787    1.64066367381702
O           0.59322985661523   -1.23625121429126   -2.63378557127358
H           0.93114469106133   -1.49076374996415   -3.49283873451687
O           0.06384651061457    2.18173188163634   -0.80292384707545
H          -0.09308073741643    2.98308643360666   -1.30428229073322
O           0.85082699699984   -3.26434641911421   -0.85920338404287
H           1.62800831731030   -3.82446173749649   -0.83393806184993
H           0.90551162745599   -2.69195369991014   -0.07141216079288
H           0.65884945130950   -2.03131408411821   -2.06292078095980
O           2.16682240976982    0.35517035773333   -0.95353372244534
H           1.65692216069093    1.16954777042946   -0.83385372311723
H           1.66836584503367   -0.63609358948117    0.38774072185994
H           1.71858512162891   -0.12153413354168   -1.67300168027300
N          -1.05632521466501   -0.27184562154097   -0.48633271804830
H          -1.72202582601497    0.03699619184549    0.29708967692477
H          -1.48970627521649   -0.84615153215543   -1.20215771779340
H          -0.66144728413234    0.59616534840990   -0.89565353383399
H          -0.26286823170792   -0.79010255643181   -0.01438308470062
