    26
        -50.45514018  Gyration_radius:  2.75163561042 Dipole_moment: 5.660
 S          -0.54649987541472   -2.62359133932683    1.11314836488295
O           0.77237815214001   -2.23791568943053    1.63083317144399
O          -1.53010445301461   -1.58330255451440    1.27444145963859
O          -0.43809535878011   -3.12162285030989   -0.25139949091482
O          -1.01476912595769   -3.85326348053195    2.00030745215853
H          -0.34406488445686   -4.50431344764644    1.81715696572454
H          -0.02018442002660   -2.01708414398759   -1.29467592307620
O           0.35091172422940   -1.30713236667175   -1.89191817755978
H           0.74948473486560   -1.77261435427227   -2.62857209483408
O           1.30766823399391    2.41249078819478   -1.13689036929457
H           1.61343455404730    3.14730097677169   -1.66930599237045
O          -1.29489754999912    0.98880199372153    0.80602730088320
H          -1.57205624949288    0.08868996276701    1.08294442782131
O          -1.06006802369929    1.09880788239000   -1.84461152667670
H          -0.22948992374973    1.60010253280181   -1.77695158664876
H          -0.79102809473661    0.18873725311012   -2.03686503519962
H          -1.48988494979814    1.04733458131514   -0.15855316316941
O           0.08318479702012    3.29592163124889    1.11029067197449
H           0.93458048140581    2.80035855340919   -0.31676212947402
H          -0.49349809557557    4.06129032129798    1.11340918842878
H          -0.49859343748129    2.51943509378224    1.20979465933835
N           1.13359421470288   -0.02857329471428    0.37254705054143
H           1.04956553132970   -0.34689836775975   -0.61155073185338
H           1.12112431873634   -0.91327586377344    0.98046552919475
H           1.95564867535960    0.55352671895139    0.49680612927443
H           0.25165902435987    0.50678945317092    0.60988382972844
