    26
        -50.44466314  Gyration_radius:  2.53404788272 Dipole_moment: 6.853
 S           1.77862321489878   -0.00739919121333   -1.60443060758405
O           2.03118442524511    0.49957793112124   -0.28459628080651
O           2.59898341329326   -1.06609587698311   -2.06908488134788
O           0.26764175067811   -0.48294036487477   -1.63227043154670
O           1.73221957555552    1.14453070201989   -2.60985637716782
H           1.34269115909550    1.95240347603729   -2.13371727533198
H           0.17807781663724   -1.29482804007695   -1.04739594859993
O           0.57838754652911    3.09627709548619   -1.43571904858152
H           0.06157919978954    3.58629320491660   -2.07928591837691
O          -0.57157205461428    0.66011742986901    2.31795618265249
H          -0.25454198951821    1.35541866589172    2.89580314920916
O          -0.14747543229480   -2.44488481446722   -0.02483269925608
H          -0.36985852331660   -3.25677766342265   -0.48343285113026
O           1.42714502495492   -0.98458087530992    1.83880919003195
H           1.07043796851983   -1.74649569446098    1.36737775696408
H           1.83259271294172   -0.42399227069035    1.14858504975317
H           0.19252618453466    0.03255315041300    2.20696063322460
O          -1.09562663387290    1.47487214533792   -0.22978485384205
H          -0.73709769733559    0.73423325275301   -0.74125754498269
H          -0.90196403179956    1.26588786324543    0.70711633685448
H          -0.07171053122910    2.59657376214306   -0.87302089483191
N          -2.29520982481826   -1.31823935428015    0.98422603979236
H          -1.00145773811674   -2.07813519724270    0.38470868379880
H          -2.99347923764779   -1.86437929857859    1.47239955685765
H          -1.88875862465632   -0.66416930290742    1.64904834228323
H          -2.76333767345819   -0.76582075472965    0.27569469196952
