    26
        -50.45514018  Gyration_radius:  2.75143467534 Dipole_moment: 5.661
 S          -0.41951300441905   -2.31734733044629    1.69503788258694
O          -0.15354517498789   -2.84850773131871    0.35217124198531
O           0.54650838908808   -1.32824121738099    2.10026561195881
O          -1.80068446553300   -1.86812978211206    1.80640869625942
O          -0.27094653921444   -3.55013570394469    2.68325399620014
H          -0.95544979885477   -4.13902629554140    2.38005143426789
H          -2.12870622612927   -0.60854015814617    0.91801789574811
O           1.53059014948768    0.67197227262998    0.71443081138452
H           1.32766841336356   -0.02597891900230    1.37433197391653
O           0.07870459847101    1.90719678241455   -2.27633751789586
H          -0.01840967699866    2.63630800030521   -2.88942750428976
O          -2.30922335292276    0.11847393000341    0.25674193319009
H          -3.25498601221092    0.09872963474818    0.10399988082421
O           2.67036994710045    1.58935822334821   -1.56037649718161
H           1.04060236208687    1.81033984006697   -2.11036545072716
H           3.25416743716561    2.33159451488390   -1.39715983742039
H           2.47797272976243    1.20044035410383   -0.68685970172438
O          -0.56476656531460    2.28934864843594    0.42017755595983
H          -1.29083297014605    1.67213742891158    0.59173418983388
H           0.85413941578810    1.37642063633791    0.84858500690688
H          -0.45910010902032    2.29445767647209   -0.54659414552340
N          -0.02766757740860   -0.66345845797100   -0.99120176953722
H          -0.03180230822847   -1.65062732924263   -0.56943205509807
H          -0.95752875056353   -0.25153068836478   -0.78497258295805
H           0.69259369602522   -0.11125689761063   -0.44621483872545
H           0.16984541370106   -0.63399743161823   -1.98626619994669
