    26
        -50.45997511  Gyration_radius:  2.5702371976 Dipole_moment: 7.038
 S           0.91438893191062    0.30481827027797    0.39015622837911
O           1.62026097240479    0.47293970511014   -0.87908197962212
O          -0.20702874654324   -0.75137783207603    0.14296085851213
O           1.77393403230654   -0.34277743948027    1.38958434057684
O           0.31476763801693    1.53094298845484    0.86137786184201
O          -3.56465281792108    1.14041050152092    0.54265541816817
H          -2.92152369822912    1.19558803236323    1.28575603679272
H          -4.18287786423716    0.44722172501372    0.77860485125352
O           2.70099333202074   -1.68572037437274   -1.81828148234655
H           2.26281385023469   -0.82645371473111   -1.57360846879827
H           3.62201117281872   -1.46781146162181   -1.97252911616956
O          -1.72211918868537    1.22399585344782    2.49059361885564
H          -1.70969089951571    2.01567948915218    3.03178020408892
H          -0.92368915637592    1.28388267564605    1.91874919492205
O          -0.13924949155786    2.30474024851703   -1.74885376897063
H           0.62365804023519    1.70492080909479   -1.67275913939567
H          -0.21128283703980    2.68986957150448   -0.86825418899785
O          -1.88227543804237    0.31995699398820   -1.37346283702991
H          -1.37014752343008    1.10118625968493   -1.68714197842618
H          -0.92305070164486   -0.34339264671912   -0.50084482350594
H          -2.56876470186174    0.67245607822995   -0.76039185470981
N           1.70714902327139   -2.65241975207673    0.41237552381199
H           2.18643402753666   -2.47310026128826   -0.51503317060099
H           2.08931375856464   -3.44505225888536    0.91689353316462
H           1.80619932006667   -1.67658742107488    0.95733543508781
H           0.70442894566188   -2.74391603963519    0.25141971317599
