    26
        -50.44466312  Gyration_radius:  2.53386625599 Dipole_moment: 6.853
 S           2.37275932374418   -0.29509820087453   -0.13770472493741
O           1.51039765202974   -1.35970831619664   -0.56861008193869
O           3.31320054649976    0.20696229311581   -1.07217205866836
O           1.43594175695819    0.89319324171490    0.33170716698722
O           3.04492071585553   -0.66621212298593    1.18533754947808
H           2.38891612607888   -1.23191740597240    1.71511962900102
H           0.97654313156936    1.27523557844870   -0.47590720284311
O           1.30365454381363   -1.92541756385757    2.56424826988188
H           1.42958662688210   -1.71606969778290    3.49253643392112
O          -2.16169428685231   -1.14429172000081   -0.39004102006441
H          -2.42902405547191   -2.06368620779730   -0.35707248104230
O           0.04907273704281    1.84355092098423   -1.61226129582828
H           0.29355038558884    2.74344226506026   -1.83448426351348
O          -0.41340219829467   -0.86648290731579   -2.33841708903308
H          -1.54822903771964   -1.06979673848108   -1.16983692416135
H          -0.24904016563947    0.07727668202454   -2.44938288409856
H           0.34408032375777   -1.19824733360506   -1.81769560308615
O          -0.61495410418545   -0.35248808204416    1.71002003065697
H          -1.18773930418804   -0.70918019261782    1.00034931475002
H           0.48028506582955   -1.44787161063825    2.27631686800823
H           0.04421227990587    0.19748519781495    1.26086988194912
N          -2.17058699158347    1.79341507505501   -0.20843869649545
H          -1.96639483216451    1.95732470682482    0.77021352258733
H          -0.83570308416761    1.87823273595208   -1.11473005433271
H          -2.44382659124027    0.81724244645639   -0.29446130068614
H          -2.96652656405842    2.36310696671880   -0.46550297650124
