    26
        -50.45514015  Gyration_radius:  2.75153351304 Dipole_moment: 5.658
 S          -2.09674205768247   -1.75745130019466    0.96702102732364
O          -0.99654013538368   -2.63846539143269    0.55525517732909
O          -1.65396083062938   -0.67669075500201    1.81058836071875
O          -2.86679824775736   -1.32080468675444   -0.18973957798201
O          -3.07049220749928   -2.66101124253882    1.83517984849865
H          -3.34655899160754   -3.32382608849196    1.20932015915107
H          -2.06704179986618   -0.36752122664704   -1.15656499102502
O           2.27590511676534    1.19324380728062   -1.48972048107276
H           2.86891896760676    1.72011239135004   -2.02607938455547
O          -1.48244131353854    0.14135048501786   -1.78723568075163
H          -1.89969390569612    0.06196592843645   -2.64616334911805
O           0.44530922294745    0.87415348788087    1.53047467729279
H          -0.34800972216669    0.38525862306326    1.83920979342591
O          -0.14748001848048    2.30338669102261   -0.63720258172829
H           0.68204720668176    2.03935329665677   -1.07075132828220
H          -0.83033903614391    1.74502703379100   -1.03673692791903
H           0.11181944599419    1.57466898646634    0.92230568462891
O           3.10021112249040    1.14163313560217    1.08872998905383
H           2.21113722513079    1.00848393923617    1.46715132512495
H           2.66592023955316    1.16598521624785   -0.59006810764294
H           3.46248326311711    1.91246729136303    1.52791047440805
N           0.62633057960494   -0.91536888039498   -0.44075766518839
H           1.53553101019968   -1.16223162223391   -0.81822874222223
H           0.02829807522126   -0.47984413165565   -1.16831862114874
H           0.07031421433210   -1.74477748302686   -0.04652552687114
H           0.72187256680049   -0.21909750505493    0.35094644851445
