    26
        -50.44466316  Gyration_radius:  2.5340162088 Dipole_moment: 6.853
 S          -1.82525555783939   -1.13722934432923   -1.05456212889804
O          -1.52830877998163   -1.42012641271724    0.32185005040936
O          -3.13474519690063   -0.69197353641283   -1.36551986078370
O          -0.78666565182667   -0.04035547580395   -1.53230161313443
O          -1.41461632998900   -2.31926728290466   -1.93442160197136
H          -0.59139319828991   -2.74203931961505   -1.51647055955192
H          -0.99722391823119    0.82323185648639   -1.06420600817603
O           0.75894905099939   -3.23827999328158   -0.95960318874203
H           1.31194261887248   -3.55789714168355   -1.67611966642302
O           1.26671681971115    0.16661924431627    2.12170240967898
H           1.45595709062873   -0.46133407593893    2.82006073218257
O          -1.08920976403971    2.17740077559680   -0.26911505998779
H          -1.39274973977265    2.88708544440298   -0.83758933502473
O          -1.33301586924285    0.57682389579081    2.06838526945943
H           0.28769833563752    0.33720751191182    2.17065785354571
H          -1.50082142481057    1.30221712993481    1.45547576503088
H          -1.53484101499462   -0.23557044954531    1.56410098603969
O           1.61189922209938   -0.82189425660011   -0.39486232019165
H           1.17298555450354   -2.39287235694754   -0.63893601766663
H           0.84144502132886   -0.45020779850039   -0.84975655945781
H           1.52911495056940   -0.53717109986262    0.53845268280491
N           1.48477648947903    2.39310386384201    0.20895417104912
H          -0.10427935726404    2.33520012797464   -0.07793800349479
H           2.01497584899974    1.98429693530830   -0.55134163764631
H           1.90158214155089    3.28542964440232    0.44168518117152
H           1.59508264878442    1.77760210416754    1.01141846980713
