    26
        -50.44103455  Gyration_radius:  2.5519019026 Dipole_moment: 5.560
 S          -1.92058635307631   -0.21989599329146    1.55267465223493
O          -2.41624892436192   -0.74779478171539    0.31272009236351
O          -2.45823190415025   -0.72917761044360    2.76053488010831
O          -0.35938194846831   -0.39892086920265    1.54385948511390
O          -2.03556001856372    1.32147214838365    1.54406651120781
H          -1.86293854520248    1.64661349470174    0.60548646337002
H          -0.18475776896660   -1.23295213609305    1.00841821675042
O          -1.59574499585223    2.10001545482500   -0.87315479945442
H          -2.45140250569460    2.31322647972401   -1.25062904062753
O           1.86472983433629    0.05784606489161   -1.42229347307432
H           2.14743813372331    0.49475992092788   -2.22633074381881
O           0.09610406726609   -2.51085875264703    0.18402037614771
H          -0.14184658340126   -3.32591944836673    0.62824242057997
O           2.69890155182937   -2.08753687677533   -0.02941852324630
H           3.00741920109467   -1.68834170974573    0.78640061341724
H           1.07819012714166   -2.50821475553918    0.06006835870970
H           2.52445402248135   -1.34674444104221   -0.64440116751975
O          -0.90505768936678   -0.19591419058025   -1.84408616566387
H           0.02868379790338   -0.38954651713793   -1.66195110460895
H          -1.43459174117336   -0.66968859820171   -1.17676444383866
H          -1.30175362579248    1.25190060705618   -1.32988480030908
N           1.13795594044762    1.88209709730612    0.36820175101609
H           0.38770616320211    2.41844194214640   -0.05422756555508
H           0.70610038916175    1.26391735405369    1.04954082418499
H           1.65198285764982    0.77480492586848   -0.75791963365307
H           1.73843650783100    2.52641119089616    0.86682681617006
