    26
        -50.45212782  Gyration_radius:  2.45259090296 Dipole_moment: 5.979
 S          -0.76385494364464   -1.66271826868508    1.39451178597989
O          -1.53112332122865   -0.50000859945285    0.99648498651211
O          -1.47569489785827   -2.88873636335148    1.40579928115870
O           0.47835914197912   -1.75463115247673    0.46340200852678
O          -0.08887388402824   -1.38706973155612    2.74262152086331
H           0.53572801533596   -0.61825253385970    2.54957568673854
H           0.18250528071816   -1.87604421505392   -0.49771853465686
O          -0.35650867953936   -1.93753996035457   -1.93948358671071
H          -0.91811455892872   -2.71221998584954   -2.01060515015414
O          -0.10462384768740    2.16278706128409   -1.41536882169217
H           0.14619537971544    2.84469067044560   -2.03891004929739
O           1.38480116062499    0.62458423270408    2.14280198112587
H           1.74256582928363    1.02451377716868    2.93825937432654
O          -1.91906634151668    0.09645542692895   -1.60578092819055
H          -2.01315113128543   -0.08394109108058   -0.65328891222371
H          -1.39449523386284    0.91525281212120   -1.65587804913379
H          -0.97399956521644   -1.14352275398104   -1.94670693364977
O          -0.61808343855282    2.01174480135001    1.28003979860789
H          -1.16516101203078    1.20563631693306    1.25572018230366
H           0.66956542280475    1.25099634391557    1.81120146695758
H          -0.48779179174767    2.25370939315191    0.34635772815542
N           1.84171609695040    0.38157868103421   -1.11249257353584
H           0.67001652228404    1.53210628862571   -1.33444066740263
H           1.57075998994302   -0.42146672666144   -1.66894009530886
H           2.81467953545433    0.58252435779493   -1.30788803545099
H           1.77365027203401    0.09957120890330   -0.13927346384848
