    26
        -50.46709004  Gyration_radius:  2.46696951985 Dipole_moment: 4.128
 S          -1.96959139910494   -1.32429871500301   -0.23645366713993
O          -1.67955345112913   -0.58464123227831    1.00207621768750
O          -2.81256666583170   -2.45820117494504   -0.04843675788920
O          -2.79206637588279   -0.29401325655693   -1.15002213374848
O          -0.73182355297908   -1.55694434995757   -0.96939437756690
H          -0.44123968552362   -0.15696877372351   -1.72106825336252
H          -3.68093067480727   -0.57386599395744   -0.96300937679136
O           1.84863829569434   -1.82397448123433   -0.22074796594547
H           0.98859022681556   -1.96632107734362   -0.65532211657389
O          -0.25606882020477    0.73581178196504   -2.10336592611620
H          -0.83140862023409    0.81751507531545   -2.86497221640913
O           1.36306892620603    1.87048956870861    1.34549264340169
H           1.53262624935916    2.68493729930506    1.81895380956842
O           2.32347871390077    0.66838340218625   -1.04429900976874
H           1.53299177816368    0.79556984162954   -1.59013761836779
H           2.17450169057627    1.18948084499381   -0.24233475627414
H           2.20691185256359   -1.00020364424047   -0.63058810185020
O          -0.98272289544923    1.88331736068115    0.25007451776873
H          -1.38625362130080    1.05955937592693    0.58774829570812
H           0.45145511537100    1.96648940508074    0.93089686774965
H          -0.78521004786152    1.68738177350296   -0.68509536066758
N           0.79351581139965   -0.72776953235929    1.87060451178849
H           1.31756344989692   -1.26371730882068    1.08144058438400
H           1.12598849283266    0.25717944735923    1.86718590127189
H          -0.22984690303237   -0.72222020094747    1.59376949307848
H           0.91995210015441   -1.16297544561469    2.77700481645269
