    26
        -50.45048634  Gyration_radius:  2.70119083617 Dipole_moment: 6.735
 S          -1.84396412800807   -2.21935969096597    0.82479366692700
O          -1.00051378323847   -1.75235407596787    1.92863454238443
O          -3.01853287229130   -2.93291126921530    1.20481462559189
O          -2.40276085287832   -0.82886052690162    0.16748855864361
O          -1.03667907814061   -2.81697608777717   -0.22577626387935
H           0.01016018275691   -2.02195223743405   -1.03595524498805
H          -3.33052327100976   -1.03900673237308    0.14295839684404
O           0.78020013046082   -1.51996605356127   -1.44038871049455
H           1.27288318165010   -2.16691319430783   -1.94714123093051
O           0.37219715112837    1.09624566071324   -2.24035061474105
H           0.41965605483965    0.13217591159327   -2.14822736484113
O           0.48276720312176    2.02684636593232    1.36118808211869
H           0.11416786342104    2.31973265576662    2.19514338509492
O           2.41983010681757    2.05159707608240   -0.61335880477129
H           1.18205639465808    1.43166088680175   -1.81918596017924
H           2.74535047906032    2.90619041518364   -0.89927946101830
H           1.83008619619500    2.21596694582745    0.13945559395767
O          -1.39718905396124    1.72255972265568   -0.35467165471930
H          -0.86230287400505    1.57483010857558   -1.17186410786311
H          -1.82555423378397    0.87339385658262   -0.17090193243855
H          -0.29389811504231    1.98346850560852    0.71034495728450
N           1.10344435188413   -0.60036983496008    1.07857350796250
H           0.95322021865116    0.42536632928266    1.20825632227934
H           1.16907180974226   -0.83906906405968    0.06670947954680
H           1.93730029596289   -0.90366732709065    1.56969468441350
H           0.21952664221026   -1.11862835600024    1.46904554782244
