    26
        -50.45048650  Gyration_radius:  2.7010476798 Dipole_moment: 6.731
 S          -0.35482400198052   -0.33469620635790   -2.96063401420056
O          -1.12508336305277   -1.31394361636409   -2.18868682958637
O          -0.78597605957040   -0.13099952063019   -4.30440964076819
O          -0.68406831890423    1.07881945278238   -2.20489589466082
O           1.07220697449130   -0.52661468133605   -2.76229818200643
H           1.76088624125041   -0.35845759469313   -1.39058084797321
H          -0.92103331337601    1.60111837795821   -2.96419039325057
O           1.43148523916845    1.59786163008019    1.32168291403876
H           1.81891919503662    1.05329387514059    0.61912942584719
O          -1.83195357647159   -0.15575526310109    1.67889700711177
H          -2.77583017387995   -0.26806729256203    1.56213929313013
O           2.15232830636220   -0.38573846977818   -0.46615222955710
H           3.04551134334590   -0.71550652610988   -0.57335022945951
O          -1.05023200062558    1.93890164172407    0.42512704466383
H          -1.59309320517919    0.71451721990723    1.21595745227726
H          -0.12149465426976    2.00116761855405    0.75570135882100
H          -0.97430334134118    1.70752775977608   -0.51243972839107
O           0.48622746790478   -0.24185875836182    3.18562586607584
H          -0.41960311162160   -0.22336195625105    2.83826212302865
H           1.25500023684484    0.98109683009387    2.05257841241508
H           0.44852971665525    0.12137318177140    4.07144107346029
N          -0.15956916788386   -1.64248022389812    0.14295801558724
H          -0.79197182690062   -1.13362155809667    0.80075363597957
H          -0.57607119585739   -1.54006759627640   -0.86618810362234
H           0.78479269885382   -1.20331955451027    0.12388762989191
H          -0.09078010896061   -2.62118876978036    0.39968484116472
