    26
        -50.46539905  Gyration_radius:  2.43472144026 Dipole_moment: 6.437
 S          -1.46387193502615   -1.83289336035130   -0.07808802633286
O          -0.15129976188879   -2.09422159529367    0.50935889509861
O          -2.46627031415590   -1.42303991734226    0.85362427928875
O          -1.33317783607900   -0.89350179344132   -1.20207608428858
O          -1.91609848768747   -3.21100272846975   -0.71876583110922
H          -1.12197950169450   -3.53097258779919   -1.13608044823284
H          -1.76922512750440    0.41654410760325   -0.35270361115935
O          -1.90392477664034    1.20764422602114    0.22498311585775
H          -2.76710218136524    1.06489370161173    0.61978880156091
O           0.80383393203800    0.22144162482035   -2.25228151331575
H          -0.04375654130617   -0.23787250528961   -2.05959453127976
O           1.98396655122038    1.17535267624707    1.36726784491514
H           2.48125351404192    1.48079974467449    2.12625274669861
O           2.15480848700423   -1.07530320952664   -0.41366669055656
H           1.46782511924814   -0.30275848633094   -1.73336953499002
H           2.35255765838695   -0.39544585718562    0.24408577102405
H           1.37757617642672   -1.55755975097916   -0.06510011388061
O          -0.18906098093552    0.00123054797441    2.12131901643411
H           1.17800585374849    0.69737523248507    1.73150539993252
H          -0.94559604285143    0.44827376489804    1.71248705302056
H          -0.18023071904278   -0.88461377543893    1.70569926723139
N           0.49121329319795    2.18254331124656   -0.63648401065555
H           0.64620678169457    1.40031220523674   -1.41421655008897
H           0.62548577202681    3.11619305882522   -1.00670248706996
H          -0.47059578172139    2.05482084537087   -0.28263672181246
H           1.15945687888147    1.97176049042969    0.13539396370952
