    26
        -50.45840271  Gyration_radius:  2.43840346259 Dipole_moment: 7.442
 S          -0.86834307478078   -1.67150796927585   -0.75202627276128
O          -1.43005893515729   -2.21434041375840    0.49857944815028
O          -1.12781439425522   -2.44115030948841   -1.91992616572535
O          -1.57726586053565   -0.27888374505938   -0.97083828828346
O           0.55839193370041   -1.37087498166217   -0.53666278179986
H           1.41330312215342   -0.83032131716618    0.63033096150718
H          -1.50927207181598    0.29522957823965   -0.17993655171182
O           1.87370129505782   -0.47211311369026    1.44489361433182
H           2.71293767416204   -0.93134836588426    1.49477943694787
O           0.66400953032861    2.04648044425292   -2.07713828371047
H           1.31221843493686    2.44877603910046   -2.65697989667685
O          -1.41300388272329    1.39295988570317    1.13393465006433
H          -2.00795192845860    2.11265863636466    0.91968533271033
O           0.54027107086510   -0.45781189894326   -3.01936790030462
H           0.73595943988486   -0.86490066314243   -2.15687017109116
H          -0.25947217194623   -0.91383456744967   -3.29862641028608
H           0.51103615345383    1.14289008441696   -2.43659370657960
O           0.99378235318292    2.06802209850144    0.57578886791114
H          -0.47787417664315    1.73434658915050    0.94214804283869
H           1.50058061823481    1.27764359218781    0.81203396877010
H           0.93411127950566    2.08752378058645   -0.40700218997123
N          -0.61118243945645   -0.82833574839428    2.43479047090126
H          -1.05671009810710    0.08322291919704    2.24841604260816
H           0.41546060274255   -0.72125153025107    2.30633807858883
H          -0.84867059703685   -1.18522547505263    3.35309678918357
H          -0.97814387728534   -1.50785357847545    1.61715293438969
