    26
        -50.46846765  Gyration_radius:  2.39927947271 Dipole_moment: 5.640
 S          -1.44071383108701   -0.86443142668084    0.70005449596975
O          -0.72895222850839    0.06986983972298    1.60585235149103
O          -1.77249871511751   -2.09950193466563    1.35736693004387
O          -2.75314413931839   -0.14273606545449    0.26918088682510
O          -0.63665937426934   -1.07136671821750   -0.49903024044767
H           0.37684472344572   -3.24356578729074   -0.26607690145998
H          -2.47209300264339    0.61425782876766   -0.29912635707505
O           0.52662384175714   -3.22923130313558    0.68420827015103
H          -0.35162014406269   -2.97451210665990    1.05200240827342
O          -1.90103103541359    1.98006997441420   -1.09410282597878
H          -2.57107115044042    2.66042841409715   -1.00801470847281
O           2.19016926968258    0.93515585418033   -0.74367973411978
H           2.98723850138450    1.08435907387277   -1.25365850044500
O           0.19994394104855    0.53722900277308   -2.36688727113132
H          -0.15408295212223   -0.17548357098298   -1.78739077285455
H          -0.48257806320638    1.21772080951718   -2.33449978422938
H           1.45668079579578    0.79392231314813   -1.41478236881931
O           0.07378415339631    2.36263842923418    0.57028710445301
H          -0.24000812385782    1.59459713087949    1.09611234800966
H           0.90903655053602    2.07947117161992    0.17358407412245
H          -1.15249467975293    2.24175796705183   -0.48737109837560
N           1.62794288734271   -0.87759026938645    1.21567916894070
H           2.29909012728883   -0.87640928070418    1.97671631452236
H           1.34910213945493   -1.86523490104131    0.93855474918585
H           0.69337141915190   -0.43501971877148    1.50957169184817
H           1.96711911952196   -0.31639473628384    0.40544977957480
