    26
        -50.45840266  Gyration_radius:  2.43831678745 Dipole_moment: 7.438
 S           0.10875258889509    0.23318132397534    2.01239056159257
O           1.57370770592037    0.33413266474192    2.14687007458452
O          -0.62267527824258    0.34023956534322    3.22776391055452
O          -0.32512381206013    1.46181223079675    1.12252952631870
O          -0.21046542836617   -0.97080493631762    1.22443640391086
H           0.41836788857917   -1.70529794516498    0.02048100859982
H           0.18558466734186    1.50872823543389    0.28783313283351
O          -2.71759787092278    0.53428396467445   -1.12554858500616
H          -3.55969851051579    0.20072067841812   -1.43805627081932
O           0.90344672424403   -2.10303414019320   -0.76069335918227
H           0.84862012834882   -3.05267735992130   -0.64711595488461
O           0.99216896080084    1.65928269354481   -1.21796697203466
H           0.74329274765505    2.51707531836836   -1.56466842416607
O          -0.43033503241319   -0.16266593587780   -2.32118504518380
H          -1.30503276490246    0.04963902594900   -1.92181698355438
H           0.43692280505894    0.97921020601266   -1.72488630937593
H          -0.11410828204992   -0.97184940799229   -1.89382513803389
O          -2.73379435943247   -0.20919159763706    1.44770924936295
H          -2.60641081065094    0.37502597495309    2.20141437785742
H          -2.70920889334969    0.36646193682595   -0.15553272206356
H          -1.88405493946289   -0.68066320712334    1.38839452703833
N           2.63765819647843   -0.15006775220098   -0.08345190196775
H           3.64876977864666   -0.21821938473689   -0.07484008713044
H           2.30975472196746    0.64473732686295   -0.65353175044977
H           2.18679306779101   -1.01602497326060   -0.44255100342447
H           2.22466598062010    0.03596550451052    0.94584774461716
