    26
        -50.45840278  Gyration_radius:  2.43846626063 Dipole_moment: 7.439
 S           0.07712357039048   -0.56367573883220    1.94702946445858
O           0.48234204776884   -1.96880223960883    1.75822454469319
O          -0.08483038007454   -0.15382116729669    3.29955192494310
O           1.25522481331014    0.30467769748959    1.35729081882829
O          -1.09345809411431   -0.29188734789950    1.09369749170163
H          -1.56772695728488   -0.72822080172704   -0.30988129755225
H           1.48327791283049    0.03974276963211    0.44212414101765
O          -1.78139288645715   -1.06891993579776   -1.22739855629724
H          -2.72627257972957   -1.22659122287763   -1.23487768227314
O           1.93478006814468   -0.31888606691052   -1.17284289560840
H           2.74427186040552    0.16763030872956   -1.33395497977560
O           0.02169810368618    2.96430401243809   -0.39406735953081
H          -0.46146695639552    3.77687744152852   -0.55043617737862
O          -0.05166040762826    0.96014890616920   -2.16178411183092
H          -0.80610445030942    0.39805582856216   -1.93322016867676
H          -0.07133972175467    1.73039730278766   -1.54859800838672
H           1.19611900937079    0.20548428567758   -1.62804035655711
O          -0.92557861103168    2.19159124337813    1.98914334192698
H          -1.19223401591862    1.30995269074022    1.67364080638789
H          -0.39543440281259    1.99295301411255    2.76701888570480
H          -0.22297251417008    2.68114888982104    0.51646977646061
N           0.43781674946954   -2.51099503019830   -0.70030179631265
H          -0.47139147624423   -2.15906864054293   -1.06279044694903
H           0.43904519400477   -2.34186767170657    0.41163461698786
H           0.59240891480372   -3.48560805878384   -0.93113810767826
H           1.18775520974099   -1.90462048888944   -1.06649388829836
