    26
        -50.47009046  Gyration_radius:  2.5065481622 Dipole_moment: 6.354
 S           0.24102281871840   -0.83700085505334   -0.66813763684720
O          -1.02126362821097   -0.92140531089610    0.10007518469503
O           1.37626360773285   -0.83104894508261    0.24240196060660
O           0.21880909467966    0.32102030999773   -1.54080082568236
O           0.35952541294464   -2.12709285868242   -1.50510908143466
H          -0.38381754711123   -2.13321770614207   -2.17022189410366
H           0.45374748660009    1.77565962710506   -0.71000590909832
O           2.92151338738283    1.32343217084249    0.76121135955053
H           3.04532731059785    1.16295759030811    1.69987106689388
H           2.53551669834147    0.50123590002860    0.40593935140130
O          -2.47949764184207    0.10564126216784   -1.86174111911432
H          -2.12766237644405   -0.28131957926159   -1.03581356600037
H          -1.76029945350201    0.67169406692450   -2.16809142195563
O          -1.71549425908158   -2.11507601383465   -3.06649545143033
H          -2.31450053597340   -2.81983810573044   -2.81153459319839
H          -2.13322341081162   -1.26783445308876   -2.76895582374004
O           0.59294882984795    2.41861500086705    0.02069062207329
H          -0.18886341158513    1.73833260644305    1.12158796207615
H           1.53457532433864    2.28979122380975    0.26505728533168
O           1.31755214954373   -0.41423377303658    2.83813907470429
H           1.41029623382525   -0.66009148706388    1.88653816723322
H           1.24958748593026   -1.24069874878708    3.31798400925020
N          -0.68839089539425    1.03240521105973    1.78485612293213
H           0.01122822205552    0.64147079385965    2.44827104251125
H          -0.97012022431473    0.22330340585149    1.15500189887779
H          -1.48478069826568    1.44329867739733    2.25928223446384
