    26
        -50.45300077  Gyration_radius:  2.56523438117 Dipole_moment: 9.922
 S           0.58630285058013   -0.87128490886166   -0.13260131599809
O          -0.55015117724450   -1.74614613344066   -0.06824151040954
O           0.65432917446139    0.06944369247704    0.98553851009815
O           0.49758219704906    0.00276655717377   -1.43616256243974
O           1.86672923762231   -1.57536313657803   -0.29640256396537
H           2.68891673861714   -0.61010809769480   -0.83465418468130
H          -0.41024758446863    0.44507375058777   -1.41787348554552
O          -2.81554783599530   -1.37305094668419    1.61162765942137
H          -2.57611459439612   -0.47489476599545    1.90350766003308
H          -1.98937578896897   -1.74576787191712    1.27394743733497
O          -3.07025856713735   -1.21117333227375   -1.05402533246091
H          -3.34553676417702   -1.22041191163511   -0.11260350550273
H          -2.23678887320586   -1.70422531015578   -1.03043526951444
O          -1.82946788001179    1.04046117600031   -1.42645366512199
H          -2.40189365492672    0.23540936846793   -1.24761377099982
H          -2.10868657334074    1.37792608660022   -2.27965486133978
O          -1.52893485631596    0.95323924355150    2.29362723057544
H          -1.24056313261587    0.95316390749113    3.20776359389929
H          -0.75546347059379    0.67940918638368    1.76391244772978
O           2.60224941399966    1.76626202015176    0.86328037365490
H           3.03662066321687    1.72080718104527    1.71687430635758
H           1.78646010291648    1.20133136473372    0.94652268968683
N           3.20896063423423    0.31170571614819   -1.23971919689315
H           3.15039493470519    1.00505085772321   -0.44245524947156
H           2.61979395296846    0.63424777221679   -2.00420448781888
H           4.16069082301992    0.13612852449942   -1.54350093665814
