    26
        -50.45195756  Gyration_radius:  2.5113236335 Dipole_moment: 2.780
 S          -1.16885381985654    1.28885131382327    0.85485716634764
O          -1.12246205411182    1.73745708114434   -0.51382395364954
O          -0.72451527746362    2.22346014891655    1.84108291881892
O          -0.30397193651372   -0.00385867680108    0.95410623285416
O          -2.55120755366789    0.74863594479479    1.17303524581460
H          -2.76890813565559    0.12844005192392    0.32159331112344
H           0.65244197331877    0.18349687658718    0.60969641555379
O           0.32935162395006    0.15415417665942   -2.09915700968445
H           1.21989783626191    0.34847555956649   -1.78843308437348
H          -0.23332804284873    0.81011699104892   -1.64222403218846
O          -0.25518551241087   -2.11651965428184   -0.79156208348642
H          -0.03747265708123   -1.38981411323380   -1.42033636363334
H          -0.38371736154385   -1.66999984641514    0.05635034330054
O           1.93351229072057    1.98257273201831    2.30489064320703
H           0.96090666411558    2.06820524255182    2.25945901016837
H           2.26935044118630    2.87772673417656    2.37859983771480
O           2.05789453787891    0.40387178048148    0.15994546495490
H           2.39992905071847   -0.51413174875333    0.22934895681283
H           2.31796840027896    0.90824729035836    0.95793101170903
O           2.39776425569462   -2.24850899478057   -0.07188046725053
H           2.93379689335357   -2.64384433297715   -0.76064969800904
H           1.46406468485844   -2.40142508808139   -0.32627127602245
N          -2.85249882626797   -0.61362824502292   -0.93544985104860
H          -2.20995311348069   -1.40368348141863   -0.96114965144916
H          -2.54221097648015    0.07214607929079   -1.61442597328957
H          -3.78259340495567   -0.93044381167050   -1.17553311425091
