    26
        -50.46558809  Gyration_radius:  2.55274563772 Dipole_moment: 5.004
 S           0.09427710551102    0.52553187263925    0.12536077292504
O           0.60661752498646    0.83016359892577    1.44783401161165
O          -1.24319520376484   -0.08869688111126    0.22507066066396
O           1.00069481564268   -0.32985462383734   -0.62691813496884
O          -0.12034063671816    1.84904018470665   -0.65084916582303
H           0.56777125958575    1.96719136268206   -1.37851795755552
H           1.57285496108903   -1.34463338231348    0.54355640145145
O           1.73344491193431   -1.80884736153484    1.39908197851986
H           2.13404145780731   -1.13784813984397    1.95945179396239
H           0.22432584538618   -1.99224675220080    1.89537477876319
O           0.65616805105634   -0.28980934973434   -3.29379684163952
H           0.93419018898567   -0.56155161223533   -2.40151484435110
H          -0.31145938683398   -0.19854569466673   -3.21588046924589
O           1.42623277259899    2.12645594710648   -2.67723965537469
H           1.03451220136729    2.74453733255806   -3.29771838133186
H           1.25992594894727    1.21156150043598   -3.04406774023728
O          -0.55223288050267    0.27182154225201    3.73144139496919
H          -1.22070432129287    0.93876852975597    3.89515622226903
H          -0.04113360844793    0.59185758986271    2.94842210677038
O          -1.85799343841212    0.26832764218774   -2.35384646410375
H          -2.07653571900198    1.20228327555433   -2.36273320626366
H          -1.69998395650240    0.05168473903034   -1.41553819027879
N          -0.80252478803974   -1.80356155193359    2.10432690054458
H          -1.34828007759865   -2.65196302795824    2.20622805281933
H          -1.12950662228542   -1.19188802545226    1.29139312423886
H          -0.84116641546137   -1.17977873485914    2.94592284168680
