    26
        -50.46836582  Gyration_radius:  2.55018072447 Dipole_moment: 5.040
 S           0.16214435203403    0.55208764995310   -0.09436854976726
O          -0.30281706082641    1.72303296410219   -0.79566906764165
O           0.30097996374779   -0.62297897326816   -1.11651529993233
O           1.47879948011878    0.68384107295626    0.49976748147580
O          -0.81548294337119    0.09357374289693    0.91567186842285
O          -2.96390999142249    0.79547049623162   -0.49330478051595
H          -2.27956332545841    0.53165243034204    0.15020094211939
H          -2.70602609479328    1.67804758689820   -0.77551241391356
O           2.01553391298981    0.61201150782761    3.07157553370934
H           1.69937484379825    1.41797819086664    3.48219138800935
H           1.93055408687266    0.75200476727822    2.09878704595249
O           2.15766213286047   -2.01141102552639    0.25467596339532
H           2.78869023152709   -1.29292515973134    0.36929342149942
H           1.52109379813965   -1.66341185305517   -0.39644880438913
O          -0.86022881230948    1.73051377196025   -3.39201302048531
H          -0.04186833569442    1.85902544082742   -3.87311967003434
H          -0.64213404481611    1.85592377209448   -2.44391542092213
O          -1.82077538733154   -0.59579358595546   -2.45090606985924
H          -2.44494582277490   -0.21032716137821   -1.79125398375792
H          -1.60513024706417    0.14785229032143   -3.05023667322289
H          -0.57199158635785   -0.67447792401503   -1.67967593455877
N           0.59059210892277   -1.50697919934259    2.33239823369236
H          -0.11108912686694   -0.89391552897499    1.78675780221939
H           1.23888225528583   -1.90357681571883    1.59687599238656
H           1.14465629649853   -0.83291578076242    2.90774458896923
H           0.13699931628710   -2.22430267682373    2.88699941714474
