    26
        -50.46507303  Gyration_radius:  2.55403707389 Dipole_moment: 4.282
 S           0.91933980726636   -0.32128500016876   -0.21905613399522
O           2.22579944643981    0.23770768018551    0.10797906564545
O           0.96849452180859   -0.81775786971933   -1.68667112109008
O           0.56084618046032   -1.44233035047359    0.63827443579552
O          -0.10359826108650    0.73170500092436   -0.15482166090163
O          -2.66673606712397   -2.03804103103560   -1.71489005315424
H          -2.37892738657327   -1.11696192409835   -1.91104922385602
H          -3.22896236121706   -2.30671383783694   -2.44295707827898
O          -0.30038095116020   -0.06080281350958    2.67858910157701
H          -1.07018539032789    0.36303685162118    2.28938013182444
H          -0.00465480946167   -0.71291006092793    1.99837841465453
O          -1.57533271715134    0.33354384151409   -2.32414930879449
H          -0.86065413269617    0.11669729861606   -2.92915940324363
H          -1.12582014528103    0.56132771311367   -1.48380535634230
O           0.30494874553803    3.19226950517588    0.70839887761037
H           0.61982858869868    3.71030041253443   -0.03388764354081
H           0.04009281698392    2.31969409651999    0.33406028749620
O          -0.20597152711639   -3.03638376992158   -1.35145182817499
H           0.55288464377893   -1.74794544205277   -1.67847884184905
H          -0.02773112875805   -2.88494602743934   -0.40954842954834
H          -1.15514473490316   -2.80824728401832   -1.47931777859665
N           1.72899304237570    1.56530968382616    2.24940773484029
H           2.44476925140881    1.76089191937692    2.93997465559387
H           0.94302843989094    0.95902794425422    2.62651679004017
H           1.29485939446548    2.42678026428575    1.84689678998543
H           2.10021474372549    1.01603320924031    1.40138756629830
