    26
        -50.45737408  Gyration_radius:  2.41908892716 Dipole_moment: 10.640
 S           0.35711563194002    1.51571691284458    0.69273896338517
O          -0.76362420017849    2.38605067577846    0.85173013510042
O           0.56552636340915    1.06968633543997   -0.68668970867270
O           0.12597449029536    0.19471897403982    1.53395770738352
O           1.62365839764132    2.00832139451582    1.25871971860077
H           2.35185624443072    0.87384910818783    1.35040592121195
H          -0.76975202265012   -0.18627503073854    1.32367359406580
O          -0.95529181225663   -1.97683716480119   -1.21084588414275
H          -1.17132217479373   -1.21647219136201   -1.81544532206956
H          -0.00194641559875   -1.92555262496862   -1.06652673067465
O          -1.37296584379218    0.31156329749343   -2.44643060366657
H          -2.13116333715551    0.69289305283555   -1.95859953623395
H          -0.60710708580007    0.73575264669969   -2.02811277658265
O          -2.91656892861650    1.34092103239305   -0.47525963800067
H          -2.97856829717724    0.55171692218472    0.07570054766001
H          -2.24066027110828    1.89414703070955   -0.04755216362406
O          -2.08349791540438   -1.00428819409656    0.90058086740956
H          -2.34696781572260   -1.71195319791481    1.49056859763494
H          -1.71669392916800   -1.44361440915221    0.07075283107466
O           1.82150622942387   -1.12350927987236   -0.87865914134705
H           1.28888364073594   -0.26956409942315   -0.85410495217112
H           2.25072035534708   -1.13525932696762   -1.73660875968024
N           2.84296853413016   -0.16846211447968    1.40942757337764
H           3.84748704376682   -0.11127768973746    1.54164658528897
H           2.58700062229414   -0.65962303875599    0.51723823936897
H           2.39343250602370   -0.64264901085168    2.18769396530925
