    26
        -50.46117193  Gyration_radius:  2.41625668708 Dipole_moment: 3.323
 S           0.37925725862347    0.91419730080802    0.29060292473220
O          -0.67651931802808    0.41783048825575    1.16126433931061
O          -0.13741074149504    1.66680654321552   -0.83613848324606
O           1.21410327949598   -0.20835775275689   -0.18566735683019
O           1.29945746780687    1.81317241114563    1.14794107129478
H           1.94504634691124    2.15902458462678    0.45869498717626
H           0.37629216260288   -1.25052306760093   -0.92838939571796
O          -3.24750782389160    0.08338445906533    0.40734771681203
H          -2.41802824493597    0.40511585394631    0.80608891348991
H          -3.44503837916580   -0.75207801778823    0.83750458338248
O           1.50631468784617   -1.89877324802869    1.89186028360846
H           1.54722207147910   -1.28792393405003    1.13074242142603
H           1.68696331221473   -1.36711551526368    2.66842333491636
O          -1.07678271779217   -2.19887798217209    1.18722201165331
H          -1.04708238968614   -1.22666368572115    1.33215846760113
H          -0.23018825213427   -2.49614361653711    1.57180160081069
O          -0.40896823549814   -1.84070352252789   -1.21633017936936
H          -0.77755628661588   -2.15828085053665   -0.29103658027003
H          -1.12108632398227   -1.11153913181068   -1.60511370552569
O          -1.90669148685919    0.01840185674969   -1.88262137459731
H          -1.29699456544610    0.75698315713443   -1.64780974210618
H          -2.60628250468475    0.04879590966029   -1.18776009921676
N           2.58921249163878    2.38914489505416   -1.01574633311540
H           1.67024191481734    2.34273721794516   -1.44768109365374
H           3.10856605743112    1.56835649357403   -1.29905596477016
H           3.07346021935168    3.21302917360159   -1.34830235780043
