    26
        -50.46524394  Gyration_radius:  2.40178806306 Dipole_moment: 3.492
 S           0.13744292565516    1.44643918059227    0.58248925807759
O          -0.71741565596261    1.09346397860778   -0.55161251368402
O           0.69184538777800    2.76285490051143    0.47965030335221
O           1.35007217717303    0.40369316699626    0.52182744529501
O          -0.52224010251129    1.12059411804275    1.84164465640312
H          -0.19792769644633   -0.30840104706426    2.16828721588099
H           1.96985846411353    0.85549891798944   -0.13004078100166
O           0.52442194730360   -1.62143059381960   -1.21645939559477
H           0.43517552371651   -1.16512752542375   -2.06062866639146
H           0.85883224708593   -0.94760683519487   -0.60545125356085
O           0.48565983384423    0.81495752537172   -2.84090251429251
H           0.01220200954442    1.26331074010144   -3.54297114139521
H          -0.05046451071773    0.94246089321410   -2.02140163920555
O          -1.37777027162538   -2.45795849527897    0.47985915193106
H          -2.06193463909165   -1.74932422832318    0.40736344749634
H          -0.78801398540598   -2.33184878703108   -0.29430621454650
O          -2.76772249388733   -0.20434393803779    0.48464532341087
H          -2.08656897824248    0.30865731458059    0.00036951201791
H          -2.82840055104005    0.22477295354236    1.34100676946188
O           2.48499097240602    1.82254292053220   -1.25953145097823
H           1.95147803051015    1.53375343376071   -2.02433399426387
H           1.99326651581275    2.54183274213031   -0.82633138445282
N           0.07368975355777   -1.34678906038151    2.27551761664132
H          -0.06957585144384   -1.66330851064658    3.22910181946869
H           1.05263089425138   -1.42410436984866    2.00999504768646
H          -0.55353195643342   -1.91458941495917    1.55221338221929
