    26
        -50.45489733  Gyration_radius:  2.61951989105 Dipole_moment: 10.031
 S           0.38912129843048    0.92732219063213    0.78698802726694
O           0.50425790009206    1.90479852904147   -0.25701796024795
O           1.21413256055359   -0.26408610286438    0.55522940817984
O          -1.09222654880192    0.41227422666276    0.85687025084280
O           0.61990564878412    1.45766142062440    2.13571686973316
H          -0.04436709191080    0.54510194399275    2.95034775429480
H          -1.39738237003431    0.13946397514233   -0.08320389797814
O           1.13446328054688   -2.04703313998926    2.42808035122311
H           1.19392665897786   -1.43045897395206    1.64835247688972
H           2.02970027783963   -2.12523625255072    2.76291923945760
O           0.80620987904938    0.24741300009700   -4.06992047253452
H           0.26685761153328    0.96301221992463   -3.71139484505413
H           0.89256864805091   -0.38891572939723   -3.35024051787500
O          -0.81970970497413    2.04604304154319   -2.52510935926415
H          -0.25197333868326    2.05020810895909   -1.72207351658519
H          -1.04549047162960    2.96004184053690   -2.70135574373379
O          -1.74430428304868   -0.27736206576041   -1.49155914288144
H          -1.62475336587227    0.53761012441151   -2.01458657321095
H          -0.99241448424502   -0.84792486840712   -1.73973604240408
O           0.68590027995488   -1.44307906887626   -1.73253122355234
H           1.07838258494721   -2.31654141119991   -1.69939763758747
H           0.97735340797933   -0.96888321176183   -0.92133809714126
N          -0.59060227763673   -0.32329872963294    3.41473853945860
H          -0.77687822783485   -0.20474990315297    4.40483266411048
H           0.03574773231211   -1.14933265190179    3.20497425295063
H          -1.44842559436899   -0.40404848212189    2.87041519563197
