    26
        -50.44082568  Gyration_radius:  2.67362082328 Dipole_moment: 4.789
 S          -0.98007810401443   -0.84231952801142    1.12886724137885
O          -0.61065533577382    0.51633873328345    1.33341213890629
O           0.09638836944553   -1.74519135325666    0.82167532762718
O          -2.04906801916603   -0.97083856962608    0.02039799186410
O          -1.74771747305817   -1.35299114010991    2.37093130759236
H          -2.10713201762143   -2.23080889268696    2.10732621956183
H          -1.69734141522224   -0.50483305954047   -0.87133561513351
O           1.89421729163304    1.70046258003333    1.54299521171939
H           0.97557838645010    1.41120577477778    1.64094053754296
H           2.33960232733360    0.95368148901171    1.12216370932713
O          -1.20440981219326    0.01735064603776   -2.08190154819853
H          -0.22523798519650    0.33784277026838   -2.01196658300160
H          -1.20424540596821   -0.66529427388878   -2.75682213648138
O           1.22223941170905    0.72647398162066   -1.97055060993391
H           1.22785654824480    1.66943846403095   -1.64282215693241
H           1.70239974310186    0.22446625035292   -1.28954544181391
O          -2.88539264707631   -3.32659297748093    1.08260897102344
H          -3.83524838883306   -3.37066448585709    1.21979262353340
H          -2.72941544633799   -2.70680815474187    0.35474604332595
O           2.40759791481066   -0.69018990024124    0.08752469965557
H           1.57567022055381   -1.10196094174595    0.40450072755916
H           3.04575266225338   -1.40007996862859   -0.00078962433865
N           1.20451706520936    3.13792445689949   -0.84038886320521
H           0.26263396205794    3.48722983872109   -0.71829234290066
H           1.79155135561000    3.90973578907881   -1.12895065683130
H           1.52993681200772    2.81642246166043    0.07548282809170
