    26
        -50.45840145  Gyration_radius:  2.40070276444 Dipole_moment: 3.925
 S          -0.75151045005199    0.52356786537653   -1.31605835189710
O           0.60461123651260    0.59944093248340   -0.77828814273154
O          -1.46914285750951    1.75261598422411   -1.19961506934548
O          -1.48145026943088   -0.61732375761824   -0.61934367561766
O          -0.66699936419448    0.06861296055685   -2.76501923737569
H           0.05609342489843   -0.65924348391742   -2.75058509957273
H          -1.54467495604416   -0.47658742092007    0.46465706080662
O          -1.53035593214281    2.32873159989164    1.45987821436000
H          -1.74057212251180    2.31029294244928    0.51102912386241
H          -0.59013960760149    2.58251049447835    1.50165958839336
O          -1.45772758922780   -0.24303577252142    1.81305856364422
H          -1.59608521640248    0.74756623705634    1.84951556896665
H          -0.49877181325162   -0.39183209525221    1.97884378294713
O           1.20418131996936   -0.41127817131742    1.62520911830631
H           1.62598577630306    0.32794276192247    2.07168061628815
H           1.08514422917138   -0.11714814035047    0.69979902747221
O           1.13764753305303    2.61922361991760    0.91708268722778
H           1.33028713149833    3.44745865413630    0.47523424474276
H           0.99937699353291    1.95698271213045    0.21259765472045
O           1.21242369945544   -1.58358971166272   -2.43436409364064
H           1.84872865115232   -0.95367225736608   -2.08390479053116
H           0.93753004343826   -2.14791083983213   -1.64974719662886
N           0.44343790518026   -2.84185439993981   -0.22612745336468
H          -0.52925635277699   -2.55485733225280   -0.21956991154209
H           0.88996875882939   -2.41937812128116    0.58021785073030
H           0.48126983809403   -3.84723526038144   -0.11784009035732
