    26
        -50.45889901  Gyration_radius:  2.42324961344 Dipole_moment: 4.984
 S           0.00889551805389    0.29183779277683    0.76626356974906
O          -0.14745147612899    1.75460563790937    0.56698609764205
O          -0.82179051716907   -0.15671474977557    1.89465702255382
O          -0.41973274361807   -0.42326895708417   -0.46304344126234
O           1.43184984377444   -0.02227032587195    0.99730044781916
O           1.89437028803580   -2.49285591679847    1.68245875545021
H           2.20841591744445   -2.46335643529471    2.58773020451170
H           1.82298155372807   -1.54388030235490    1.39679352568204
O           2.42838590193010    0.61687572403483   -1.30882701216672
H           2.05686775324539    0.30012007304953   -0.44138994034602
H           3.29968226326416    0.96523534444516   -1.10870586252109
O          -1.44714778255937    0.97800865068392   -2.39424801385605
H          -2.16032803641899    1.38255836117782   -1.86914270676380
H          -1.10221771677819    0.27726179287226   -1.78664709940642
O          -2.73669977311455    1.68378882523752   -0.08073653773189
H          -3.18892335442236    1.15169573496129    0.57496537019906
H          -1.83162958627449    1.80417096706622    0.26583650893853
O           0.55882212808411    2.31050444275686   -1.72180540424496
H           0.27105095413649    2.20523101076361   -0.69140465390712
H           1.34702040805601    1.66573018250998   -1.75681057651950
H          -0.26678160151385    1.82985503901129   -2.18445668594041
N          -0.66577521276962   -2.49445410295654    1.01840007281398
H          -0.59866504673576   -1.98100266952900    0.10273922643107
H          -0.88264303524531   -1.60642159039640    1.62495280355845
H          -1.35826715760696   -3.23385234130512    1.03790436893732
H           0.29971051060757   -2.79940221788921    1.29022995039021
