    26
        -50.46843934  Gyration_radius:  2.39634125856 Dipole_moment: 6.679
 S          -0.65613497893216    0.76830410562163   -0.54137446416956
O          -0.39032157228193    1.15687207195434   -1.90540819780714
O          -0.62024928333641    1.86888272914261    0.41650072941073
O           0.51437504460353   -0.20127542511027   -0.09561593404677
O          -1.86022934033046   -0.04350587719312   -0.39575764198545
H          -1.60898170357896   -1.12861145228711    0.62025166616675
H           1.36332892618219    0.32653887901967   -0.05271214405083
O          -0.64692604304052   -1.49714058876098   -2.44162989183929
H          -1.59715588728561   -1.51397714878085   -2.30003197531377
H          -0.41642324212549   -0.55260770701717   -2.38628962332016
O           1.16485976750145    3.22875221032878   -1.03268413843889
H           0.45822997868588    3.03992198884965   -0.38878011018096
H           0.84380257273393    2.79592993488560   -1.83462689571019
O           2.59675332424304    1.32345557090711    0.08897319721355
H           2.23142598991653    2.10908250018431   -0.39630357269404
H           2.66562739419546    1.59009304581478    1.00850165141598
O          -0.38047482180202    0.45493655173666    2.63587428402591
H          -0.90851751313750    0.90603065416240    3.29723389196428
H          -0.43736782068683    1.01471015042612    1.82665861259312
O           0.45842839449387   -2.93727438322734   -0.43148652582514
H           1.31144106390525   -2.50752030058722   -0.32966639810572
H           0.06454734845436   -2.50581694511245   -1.22628897201436
N          -1.16065615488643   -1.79841599735299    1.33117351029583
H          -1.83618873715305   -2.40694350692171    1.78020617660169
H          -0.70207988192279   -1.15174549450882    2.00303778203684
H          -0.45111283441531   -2.33867556618710    0.75024498378954
