    26
        -50.45046665  Gyration_radius:  2.54254941594 Dipole_moment: 6.184
 S          -0.96128307922367    0.97365879541028    0.42807184169810
O          -0.74685456242759    1.39852554317561   -0.91757357367152
O           0.18528007666650    0.32239959136841    1.03669625488269
O          -2.15845939014637    0.01592111156092    0.52326153898481
O          -1.39717834155431    2.13934925610993    1.30581363573014
H          -1.46196856556257    1.70598648791940    2.24556625083986
H          -2.07375318311205   -0.81804127697738   -0.09996504205418
O           2.70599504546153    0.47204514334025   -0.04246262406649
H           1.82740581038569    0.56637149421410    0.36105821069354
H           2.96243974592444   -0.44424504030199    0.09223715696051
O           0.22165945118880   -0.60944424639298   -2.46656060020139
H          -0.18353621967220    0.16482782443260   -2.04118939354428
H           1.07038087018314   -0.26563709837603   -2.80892152681370
O           0.73292525902644   -2.04555466481803   -0.23253954748935
H           0.81747403744619   -1.64819906946543   -1.12479820008525
H           0.63434026855086   -1.29177530856497    0.36937598723053
O          -1.79376495846729   -1.98004776421014   -0.96024209973932
H          -0.91434062618391   -2.27930020302014   -0.61146512919889
H          -1.59417295289302   -1.65244909624130   -1.84685309673127
O           2.50921263470673    0.80036629793569   -2.74726853099205
H           2.69321782124987    0.73670752704122   -1.78869913084983
H           2.25610848007282    1.71121835666858   -2.90614528920530
N          -1.37565406247473    0.70893668376748    3.40930566962338
H          -1.17220944224344    1.02718079882061    4.34755455137279
H          -0.59003574463547    0.17744450250706    3.04942321202785
H          -2.19322835226442    0.11375436406579    3.42631948458122
