    26
        -50.45947911  Gyration_radius:  2.49387004302 Dipole_moment: 7.223
 S           0.50317287236246   -0.80097404731600    0.85311197539155
O          -0.65873950603408    0.06479087266061    0.67624522074422
O           1.69716565600051   -0.07385228357613    1.20084559092491
O           0.72560096729184   -1.52792594081167   -0.53487729345717
O           0.19202412343132   -1.92517213069067    1.73637859640917
H          -0.77389870333235   -2.61713933110803    0.94429819811119
H           0.57623096935673   -0.89234206103542   -1.28531677597474
O           0.69475135230224    3.77731615485331    0.45638016727807
H           0.43695344238590    3.21495046668487    1.22231177519156
H           1.36477734314851    4.38072028802490    0.78111290195412
O          -2.13217316615167   -0.94945659986071   -1.18376410961103
H          -1.61238863606353   -0.69782289696525   -1.95720809769310
H          -1.74443702428098   -0.39691763798024   -0.46137532503363
O           0.22222048155720    0.15779702546760   -2.45588058251158
H           0.77388485802606    0.04603217462803   -3.23269021549140
H           0.67444159384925    0.87329742481796   -1.91254785627397
O           1.63618877467006    1.64508157212964   -0.90587904359063
H           1.25827627625793    2.47296159838176   -0.53709943684458
H           1.78586976478182    1.06229028391115   -0.14027223701431
O           0.24494079070235    1.95059377120379    2.37248515822631
H           1.05708718004843    1.42798005571301    2.32852493489743
H          -0.38409186260352    1.41576829917862    1.86162706793312
N          -1.48371081288570   -3.07357102283116    0.21766211889728
H          -1.79033481658439   -2.27632396145792   -0.43727184352335
H          -2.28202297511446   -3.47467186251578    0.70079928992518
H          -0.98178895313421   -3.78341019152021   -0.30760019887955
