    26
        -50.44932716  Gyration_radius:  2.61967644248 Dipole_moment: 2.627
 S           0.26257306453072    1.26854668621956    0.25695455251922
O           0.53433675873421    1.33495680523106    1.66337216905971
O          -1.10173042334815    1.54410054994418   -0.11076088356335
O           0.62752232476045   -0.16349790390709   -0.24583466691027
O           1.21358371097108    2.14824767673669   -0.52265376149548
H           0.75885949075238    2.27941499878411   -1.47638825814668
H          -0.00153042882562   -0.75576895252495    0.26308158503263
O           0.59149545380759   -2.34307590731784    3.03312567100056
H           1.09390450927635   -3.08666256768062    2.69624369102974
H           1.22670206058110   -1.59177424076170    3.10068220482558
O          -1.07915060260565   -1.25338959604779    1.32011988899263
H          -0.53584093528540   -1.74421066426070    1.99391535585939
H          -1.35619613793261   -0.43970912698465    1.75020010113061
O          -0.08561780721119    2.30604303000566   -2.62674057411581
H          -0.08892426398773    1.33724452385598   -2.94782427187769
H          -0.93772476625252    2.43168111949563   -2.19430922968852
O          -2.30721333391057   -0.61173047656034   -1.26417245543656
H          -2.24241861016216   -1.25028765029121   -0.54831301589364
H          -2.04258853602738    0.23719390459415   -0.87210080319440
O           2.21040252010806   -0.22422523596960    3.01978784042397
H           2.38726291180660    0.24203586965218    3.83911921422124
H           1.66309670926093    0.38319633673252    2.48092361381633
N          -0.17278719691640   -0.24388326259828   -3.17019620210759
H          -1.02428334819042   -0.51383894677520   -2.67453895773996
H           0.60604280258239   -0.64757370827946   -2.66445974631045
H          -0.19977588659708   -0.64303324132479   -4.09923307144128
