    26
        -50.45043285  Gyration_radius:  2.56766833376 Dipole_moment: 5.859
 S          -0.90546421763481   -0.47068775769429   -0.61894166251233
O           0.44464964711686   -0.80625514094303   -1.00119753486934
O          -1.38106858389021    0.77646911437185   -1.12849357634940
O          -0.98657646842934   -0.47507788417582    0.93004060278742
O          -1.86180116088865   -1.58604865895080   -1.00725234414349
H          -1.54471822925403   -2.46681849649624   -0.58754795140385
H          -0.55219594780349    0.36620254487426    1.28248023893117
O          -0.96542374396278   -3.74252021351354   -0.03368898805971
H          -0.72051558410351   -4.30244446234887   -0.77407370421211
H          -0.10761587146281   -3.45163488096855    0.40520901664953
O           0.09948545838557    1.69605369501713    1.71765068092056
H          -0.40973599929345    2.36902563878076    1.14329653124769
H          -0.09306745720898    1.92571425681864    2.62905348805872
O           0.43973663833218    2.99016905481885   -1.86810355231489
H           1.18777948586101    2.53571770572793   -1.43171290959107
H          -0.13464591485687    2.28330430011654   -2.18139544769698
O          -1.24519299466293    3.21486564317557    0.16149853910393
H          -1.78353340827462    2.52137396019370   -0.24350016613642
H          -0.59019536237562    3.42304889458977   -0.54903079534004
O           2.00597627931245    1.34143749968923   -0.37265616334161
H           1.57697629111067    0.53181534349155   -0.69396375858014
H           1.62018034823626    1.52438458349565    0.49223084968000
N           1.28307865062911   -2.73406028331259    0.89107298058754
H           1.23613251305397   -1.98641895835592    0.19932992248516
H           2.19673459095226   -3.16543651137123    0.83366080349877
H           1.19102103117146   -2.31217897697177    1.80603490055923
