    26
        -50.45010565  Gyration_radius:  2.48222127505 Dipole_moment: 3.308
 S           1.12259307634407    0.52831676555390    0.80250031239906
O           0.02844219201160   -0.34313404468730    1.19164144514552
O           0.92060945063661    1.90597189338026    1.11211573898794
O           1.37562945618773    0.34479393412170   -0.70937310558441
O           2.41766557822694    0.02202177425774    1.41493047503968
H           2.35246792078578   -1.00276161464711    1.35352644951847
H           0.54830425496576    0.50694559652028   -1.27030186892293
O           1.23979146673056   -2.98324445820612   -1.27024227872431
H           1.05240730209190   -3.90138365515854   -1.47240640145811
H           0.36925941244088   -2.51907223457113   -1.24889504427635
O           1.87853861465875   -2.42645293786823    1.23351782240419
H           1.79433767149954   -2.65847391612200    0.27219147800141
H           0.97674656663753   -2.28385800935363    1.54365447666939
O          -0.73255547322681    0.85202626012354   -2.07296596092413
H          -0.48391376884671    1.27215361890527   -2.89845154095710
H          -1.10712540994164    1.59025613322273   -1.45835794932371
O          -1.99765523836261    1.28686939271173    2.07709521236391
H          -1.50935290173274    1.86719438217612    2.66460617902310
H          -1.36285598077059    0.60461163214250    1.80758152938682
O          -1.05915709821133   -1.68416042366075   -0.90683865476562
H          -0.82228246298170   -1.25902821568209   -0.06517821361176
H          -1.19653478075212   -0.95581780864692   -1.52489083810083
N          -1.43043210118277    2.65905752280085   -0.37923929924316
H          -2.03734386139112    2.22635372357068    0.31770171938734
H          -1.80467674076434    3.57295862954731   -0.60130852760118
H          -0.53290712258492    2.77785600870573    0.08738684776511
