    26
        -50.46240661  Gyration_radius:  2.40623866072 Dipole_moment: 7.416
 S           0.75137427048524    0.38840456415717    0.45090439795605
O           0.25165762479181    1.68002197244086    0.91282322884221
O           1.57738681064429    0.50025857397126   -0.72965173744602
O          -0.51315125914015   -0.46602725742783    0.11603575460370
O           1.38530262527540   -0.36672171655628    1.53414424065873
H           0.28167767026695   -0.90182873791327    2.27768356197960
H          -0.93185044113338   -0.17876295360182   -0.79331438339998
O           1.89041400559496   -2.21696629103701   -0.70178786186104
H           2.36180949768470   -2.48678228350608    0.08753511081267
H           1.85999218330718   -1.25006990919748   -0.65919819759871
O          -1.40787804448978    0.31665554748822   -2.09256484077988
H          -1.14627260787386    1.26341441429564   -2.03060412409934
H          -0.73029622067247   -0.09835695565888   -2.67388275232465
O           0.86051729792626   -0.67365086148533   -3.09049840015889
H           1.03531876652168   -1.58463817581209   -2.83547915989816
H           1.28605910915195   -0.14374920704595   -2.39545977736102
O          -1.89382215621038    1.06496327995340    2.23588799971432
H          -2.56246125461375    1.06006906736453    1.54648443931254
H          -1.08184077330613    1.44175759342029    1.80689181700565
O          -0.22099271806445    2.64590854280578   -1.53495802131602
H          -0.05982403028135    2.45630786552745   -0.59094035787702
H           0.64118466130217    2.58051389065861   -1.95333202164765
N          -0.68736524910531   -1.21702661594342    2.71091817832936
H          -1.29464234459956   -0.34146312834570    2.60747178450296
H          -0.59861219421655   -1.51522802642437    3.67719322268359
H          -1.05368521925364   -1.95700320213229    2.11769790936545
