    26
        -50.46956858  Gyration_radius:  2.4882638531 Dipole_moment: 4.394
 S          -0.18281996403615    1.78784432797454    0.46071758093227
O          -0.70724279806743    2.32975825777116   -0.75732520135555
O           0.94270282649842    0.86405795115429    0.21341099585228
O          -1.17975619582371    1.11470593100877    1.29427311202173
O           0.41163290030387    2.96251341088795    1.30778177630902
H           0.68222885642250    2.51648907499183    2.12895295471601
H          -2.05672376864927   -0.31230758614024    0.75524807802993
O          -2.12255188100375   -1.15299121430785    0.26166119449951
H          -0.68159315500293   -1.61193978693120    0.56182935605990
H          -2.06821052379792   -0.86292266437271   -0.67602459053286
O           1.33240399052160    0.09629437426355   -2.26216179926763
H           1.23556199674430    0.45488124599076   -1.34613327052393
H           1.73049432505763    0.79801070339882   -2.77901105081472
O           1.31188010058774   -2.55202651974006   -1.69942012987052
H           0.62628383645373   -2.89914995403613   -2.27386405720480
H           1.49088471900177   -1.64373595468557   -2.01014822509018
O           0.40993508495625    1.19519322499182    3.33856126159375
H          -0.03775623295910    1.49357740339529    4.13313574019756
H          -0.29322997603990    1.00924536535320    2.67753658769515
O          -1.45309185360334    0.06547948414449   -2.01775950276045
H          -0.55842198644686   -0.09280187001176   -2.35215563400613
H          -1.40522614786085    0.96630186140550   -1.64956208604975
N           0.39198541767896   -1.65546944695779    0.67186779322330
H           0.67393346192749   -2.06540036953452    1.55482117257521
H           0.70321245044882   -0.64528826727710    0.61015780206486
H           0.80348451238818   -2.16031897695379   -0.14638985748091
