    26
        -50.47285697  Gyration_radius:  2.42619446632 Dipole_moment: 2.556
 S          -0.65537152746448    1.43778978712743    0.63298643752840
O          -1.86661709781436    1.60879762819078   -0.13052845782069
O           0.52903662133035    1.45393280261400   -0.23354675507813
O          -0.67152152053495    0.22843342741963    1.45216610198796
O          -0.51761406860279    2.65192242209220    1.60711712555729
H           0.22902353726137    2.39114642933121    2.17325651779713
H          -1.00791327563424   -1.30805228847392    0.73803745900125
O          -1.14385940792455   -2.06441637885531    0.13689548984585
H           0.44027356973681   -2.35691186643316   -0.45210345081421
H          -1.73778617532450   -1.73403124448167   -0.54894311639372
O           1.29128228473070   -2.17337790317248   -0.91686049255053
H           1.83173322184330   -1.66229953946453   -0.28029839644001
H           0.80214771411572   -1.09144948172248   -1.81248003847133
O          -2.33583081701419   -0.33292698192447   -1.79490516741114
H          -2.22161535862842    0.40924529404544   -1.14611532786718
H          -3.20478298860175   -0.21225477281805   -2.18106942184377
O           1.18614201049030    1.09365352901784    3.01224764582224
H           0.51850231942116    0.56488575534061    2.51662431051370
H           0.98872247708693    0.97971289223893    3.94408761085805
O           2.38786691009558   -0.26935301880155    0.66086673799100
H           1.78967620451618    0.42927945615689    0.33480034356925
H           2.45582568580702   -0.11489411344686    1.60667561464543
N           0.34475346720926   -0.19858156742876   -2.26499737372590
H           0.78041947420591    0.05702414695458   -3.14360260821794
H           0.46016014106127    0.56422405118315   -1.54239333411594
H          -0.67265339133021   -0.35149849467889   -2.36791747437169
