    26
        -50.45210245  Gyration_radius:  2.48530010796 Dipole_moment: 2.556
 S          -1.09987251689665    0.49314104941597   -0.31513349938364
O          -0.91400141420287    1.49387760964307   -1.31357796012875
O          -0.82811283965593    0.87971258592053    1.04752943552876
O          -0.20621989360740   -0.72736925089155   -0.62784859287184
O          -2.52741696323597   -0.05638919286163   -0.40574036915146
H          -2.67899330469221   -0.59315203838595    0.45240271668102
H           0.06310968419655   -0.71949251159045   -1.63930075066250
O          -0.31793493360262   -2.54297886455256    1.52939945248530
H          -0.15083034282280   -2.32097376643779    0.60618310941767
H           0.28364034529891   -1.96559525001498    2.03529012150593
O          -2.59680321490921   -1.25830801134210    1.81514194991945
H          -2.31591163447338   -0.52377718918636    2.36840076265319
H          -1.81841892122129   -1.87824978662223    1.76309244536883
O           1.48990693875185    1.75054064660570   -2.65150725268169
H           0.62326050349621    2.11281009522101   -2.42384649296885
H           1.92040629782650    1.62031989857940   -1.77639008536868
O           0.98029218729311   -0.38685517419113    2.57018796782921
H           0.35642671239801    0.13588470364380    2.02850073278220
H           0.92856651188920   -0.03995942433707    3.46222175195035
O           0.40897604866769   -0.56425993114907   -3.04139964649912
H          -0.39471733986033   -0.34049443797055   -3.51732181308534
H           0.94866740194711    0.28783162479274   -3.00106747053843
N           1.99917106763603    1.32795922973844   -0.01391749154752
H           1.03848027788303    1.50303719255614    0.25909195686980
H           2.59412921583216    1.93756296888116    0.53443447876799
H           2.21420012609516    0.37517725455026    0.25517453317242
