    26
        -50.46322917  Gyration_radius:  2.39982658004 Dipole_moment: 6.331
 S          -1.14294801258307    0.67531750581056   -0.09224054542769
O          -0.69269266873527    1.58060267062491    0.97142425114412
O          -2.44596342281596    0.11366085826715    0.16707657635225
O          -0.10904245140448   -0.53437723732109   -0.05880552493165
O          -0.96424488112583    1.24317469266677   -1.41238128331004
H           0.72778622249617    1.20718628252443   -1.71969801119354
H           0.08898292461797   -0.79903837104907    0.86738807848305
O           0.47703908653314   -0.98426640078954    2.46889645941893
H           0.47239908070957   -1.91154003835238    2.71512791741281
H          -0.42208063718741   -0.63514116669495    2.71987833333908
O          -1.48412135614834   -1.17838477343221   -2.41167056602876
H          -2.06114596219476   -1.48180899229752   -1.70716030664204
H          -1.37659995241076   -0.22607956320485   -2.23984666977744
O           1.22561790273603   -1.54294707879198   -2.55007919931115
H           0.26202890779133   -1.53064226225109   -2.37140112415725
H           1.30684680924007   -1.60677227486632   -3.50389954420121
O          -1.97972265564088   -0.10991039506246    2.76249682549747
H          -1.92591753533829    0.82599650520386    2.97397836224835
H          -2.29400246990110   -0.12375761286606    1.83059972305261
O           1.67344604966150    0.94872963735189   -1.68171474115194
H           1.65917985456317    0.00087299552133   -1.96087854155253
H           1.90398506411937    1.04941850934500   -0.21760934911124
N           1.84005251245983    1.21826671366463    0.87041197253184
H           2.47193084346784    1.94830911759822    1.18189509634485
H           1.98395433754503    0.35527874349497    1.39255110476025
H           0.80523239974030    1.49785192529511    1.00566068630903
