    26
        -50.47314777  Gyration_radius:  2.38305289599 Dipole_moment: 3.678
 S           0.58678914683499    0.68782919011546    1.33498440485557
O           0.26981317457547    0.70588097656473    2.73736528540512
O          -0.59971969221696    0.88923901613546    0.48875066615865
O           1.09987454239086   -0.76978162388275    0.96787919941235
O           1.67435870956721    1.55573624473659    0.92386387257858
H           1.78532815375592    1.50810421075249   -0.58274611978026
H           0.33403916904522   -1.36642903340816    1.16379731458053
O          -1.03396491617072   -2.21929424198921    1.42442204350537
H          -0.90064254540307   -2.88388374375490    2.10275437441687
H          -1.58580472656726   -1.50177355154461    1.85060813341581
O           1.56000285941140   -1.26465362695208   -1.73995444620570
H           1.79805152333269   -1.41451429741966   -0.81552909804350
H           0.57573643621927   -1.31495947220462   -1.74344519065255
O          -0.85372593482508    1.93943154771676   -1.94531231801767
H          -1.31732367341535    1.20623714980266   -2.36064880076465
H          -0.89815322547368    1.75655656457337   -0.98393556643134
O          -2.17898682932783   -0.16636286278819    2.54187749694975
H          -1.30627840058453    0.21241098121059    2.80182641697231
H          -2.49058990756262    0.41620348784752    1.84386782388744
O          -1.05698371283736   -1.07875399803050   -1.22088538043078
H          -0.93499830378189   -0.34397408802571   -0.57919862186304
H          -1.31033014040835   -1.83103757273052   -0.67716437675125
N           1.73435259563524    1.37045123099193   -1.64784900691916
H           2.48191625812303    1.87016123673183   -2.11642106148040
H           0.78573973537611    1.71288617851909   -1.94607574295645
H           1.78149968433310    0.32429012701864   -1.82283129184155
