    26
        -50.45499937  Gyration_radius:  2.50011653388 Dipole_moment: 4.590
 S           0.24936789798414   -0.44523698894696   -0.97847791860899
O          -0.97563240863598   -0.62034232528148   -0.19629801438721
O           1.41876980972888   -0.43891388983811   -0.09901706798714
O           0.37701352658284   -1.62327851742357   -1.96297560307913
O           0.18130615422327    0.77963321856881   -1.76729107536681
O           2.03230143124207    2.04202780213859   -0.21581658099900
H           1.93285394386038    1.06305591077622   -0.04716978533348
H           1.83995158545580    2.11090873413769   -1.15872339659861
O          -1.48351016230774    2.64529319771017   -1.21678488214654
H          -1.47342664102477    3.23806878342326   -1.97054511101395
H          -0.95972740272539    1.83898300430519   -1.49005235477527
O          -1.04580296566769    0.87370565226995    1.88054690760110
H          -0.98056837095432    0.24596607511109    1.10126545294910
H          -1.98505952895136    0.98312524018861    2.04674181431034
O           1.56417829509375   -3.11942895212349   -0.27402281421806
H           0.84678161014645   -2.33780744130863   -1.42817704808461
H           1.89371289988513   -2.27778903931293    0.07562556010555
H           0.78500471400017   -3.34670983917862    0.29133791535470
O          -0.04667993463509    2.94143464753216    0.84546133647078
H           0.89575746581813    2.62168094010520    0.46329769506427
H          -0.66744908951199    2.97153398506833    0.02437785281112
H          -0.41499772221272    2.13210851726571    1.38764899214676
N          -0.75242673555364   -3.16622709318447    1.08987745672132
H          -1.49494598601176   -3.81263446123192    0.85506346040778
H          -0.96993934018311   -2.27010651127511    0.65138161272921
H          -0.76683303564409   -3.02905063949937    2.09272560591934
