    26
        -50.45434006  Gyration_radius:  2.4878004722 Dipole_moment: 3.056
 S          -1.04820537827453    0.38781889435619    1.58194626389737
O          -1.90963197318853    1.51858680704310    1.64593396657798
O           0.27211337687246    0.68132032675888    1.03662686000004
O          -1.67186294006805   -0.72957025306347    0.71295474202688
O          -0.88882898842431   -0.28305377675272    2.93350747536616
H          -0.03980685273742   -0.87829111888238    2.85745712969605
H          -1.67593591481391   -0.42972242310192   -0.27669087177328
O           1.21834461882793   -1.56864748506797    2.48985098810426
H           1.73517856609482   -0.83073639542923    2.15248731593896
H           0.98189509193651   -2.12677920629780    1.68221277242253
O          -1.40896027803250    0.10693875470835   -1.64825736753359
H          -1.34962706037175    1.06970039626648   -1.50134563829623
H          -0.47014207715686   -0.18892431290307   -1.74358421504587
O           1.40886174246874    2.14837512182388   -2.47677472323778
H           1.13848991828194    2.38195316831110   -3.36610861858134
H           0.74452222823723    2.51833442039180   -1.87684506882032
O          -0.67988178066499    2.54688130229224   -0.64288547625752
H          -1.39042100770446    2.96122024872280   -0.14464983194032
H          -0.20735735706909    2.00810531852426    0.02004865444772
O           1.18862923409542   -0.32999097899457   -1.32465104031508
H           1.52211889452232    0.43859234508013   -1.82155779139491
H           1.04213750334946    0.00221111669558   -0.42142274652921
N           0.48512565906924   -2.78509542189938    0.26817096897413
H           0.90020863529497   -2.26553485876675   -0.49849756449973
H          -0.50804892327863   -2.58097130308390    0.27242853066154
H           0.61108505275344   -3.77272070669642    0.08964527613259
