    26
        -50.47441270  Gyration_radius:  2.41120021895 Dipole_moment: 2.741
 S          -0.23819538362694   -0.87415300987036   -1.45065436494959
O          -0.65677978165595   -2.07602812884800   -0.78524551533760
O           1.16300114353283   -0.52768492228732   -1.17410938413237
O          -1.08828800106342    0.27299106700460   -1.08739434525056
O          -0.39125460060361   -1.09049791780194   -2.98202693672354
H          -0.00102797519812   -0.28661428375972   -3.37547908132986
H          -1.72203436836701    0.18128444723986    0.39279222370783
O          -0.79693323144827   -2.23220360074138    1.84956967057748
H           0.10542243348459   -1.89909252827665    1.98440069861871
H          -0.82388925717132   -2.44424624446707    0.89390396387049
O           1.01791745523874    1.13684774525578   -3.23958468756914
H           1.37968946559987    0.62110322095505   -2.49669943833526
H           0.66316961804714    1.94759604077925   -2.86191686543985
O           0.22287840242458    1.51416353840118    2.21205216200485
H           0.82874995118622    0.75614552643356    2.18275770645607
H           0.38674596562630    1.99677300377643    1.37338364897297
O           1.54739698968891   -0.80671654641185    1.41335666194623
H           1.40646435232815   -0.73964126306521    0.43815821426022
H           2.41344128310563   -1.20262146152671    1.52486184131522
O           0.63669604053436    2.15421223358206   -0.37002662992029
H           1.45345061337365    1.65884171288847   -0.48360769909312
H          -0.07133098929442    1.54767147653008   -0.67732535280891
N          -1.86761094273071    0.12370894101233    1.43422321444420
H          -1.15159556306470    0.78035704003456    1.87371617349369
H          -1.59636804775061   -0.86914131062888    1.71977374246729
H          -2.81971556208040    0.35694523367881    1.69112036884625
