    26
        -50.46097118  Gyration_radius:  2.47583718921 Dipole_moment: 6.327
 S          -1.48234544882212   -0.60134149770745    0.88048462145893
O          -1.95493200943633    0.65462957587313    1.39512007067560
O          -0.10881498815563   -0.88514641770500    1.30355582460031
O          -1.56830784794293   -0.69146101378069   -0.58470280400024
O          -2.38455079292855   -1.73409468122948    1.46437501545743
H          -2.06293260719925   -2.51576540456725    0.97997493239631
H          -1.07058267152704    0.63372938160454   -1.38943415915576
O          -0.57891817217033    1.41662810454009   -1.74317816821317
H          -0.54370383033997    2.04683115303197   -0.96902681764697
H           0.71140868343844    0.93485942980905   -1.92644250124663
O          -1.44450936832175   -3.28249743219004   -0.48650169239170
H          -2.13544950145194   -3.66337735293357   -1.03293919349861
H          -1.38834084140030   -2.33335076722317   -0.73180749803094
O          -0.45021415895331    2.67451489584764    0.53128223580584
H           0.33941543370205    2.38010712539245    1.01741302576488
H          -1.16696888851362    2.11958777941871    0.89982678495318
O           2.27152864211060   -0.73635445123252    0.21620510233515
H           1.38407650345184   -1.02054512727156    0.53534234247122
H           2.54048710306334   -0.08242974092774    0.87348341277510
O           1.29611946708515    1.20646456074120    2.07313717277893
H           0.69983129214289    0.44581407781902    1.87483584118101
H           1.11821950400034    1.44192145101740    2.98489236177902
N           1.76558256952080    0.50421556219370   -2.03558040710476
H           1.99839148407527   -0.01532055442010   -1.12470634095091
H           2.43268901633646    1.25188091600543   -2.19440276021903
H           1.78282141828478   -0.14949955216158   -2.81120640197328
