    26
        -50.45617905  Gyration_radius:  2.50853528091 Dipole_moment: 0.804
 S          -0.64733165983354    0.69256672830376    1.22381701692836
O          -1.75854499240967    0.11358931271647    1.91671121077850
O          -0.95334425779622    1.10549143987520   -0.13184892591547
O           0.52994292852440   -0.29456364834212    1.18058619783267
O          -0.10034454620407    1.86330249864710    2.01781460393845
H           0.79854832032014    2.16600834298042    1.59961500682070
H           0.21165834231197   -1.21829326299555    0.80911461522202
O          -2.63616118946160   -2.36676360297660    1.53266945207439
H          -2.47148791390182   -1.41642628213340    1.69970444125450
H          -2.77384424187129   -2.76784440599273    2.39253890003251
O          -1.20426725231343   -0.91534266484965   -1.84017832910997
H          -2.11651534919359   -0.97415665630587   -2.12960397784941
H          -1.14317801286953   -0.10676571214839   -1.28752803153600
O           2.01458216419477    2.64801576344143    0.91938375967701
H           1.79595538546039    2.48143596895699   -0.05651092617735
H           2.08223298549330    3.59984399814558    1.02389416491857
O          -0.34243398131717   -2.42203159995807    0.19337095035169
H          -1.17446747525157   -2.59649415628706    0.69045895592881
H          -0.63384755019184   -2.06787128961518   -0.67408880079037
O           1.17989889676945    2.14440020162190   -1.45086465643023
H           1.57018651566005    1.27122594061296   -1.69947837009239
H           0.28440537384631    1.92099700212064   -1.14657389871040
N           1.87984270329985   -0.44532733920676   -1.73162184543719
H           1.01371724080320   -0.83882630635904   -2.08228580385309
H           1.94843909428128   -0.68585785772410   -0.74940009812866
H           2.64635844163477   -0.89031240252115   -2.21969563170468
