    26
        -50.45144587  Gyration_radius:  2.4794920111 Dipole_moment: 4.555
 S          -0.01769239855856   -1.05776508819551   -0.69247754819256
O           0.87719379474313   -0.70985954205457    0.39959363039080
O           0.56027519034235   -0.90422340589290   -1.99061050196638
O          -1.27882861607647   -0.20476982452844   -0.55769274051614
O          -0.48362785910520   -2.49858706569474   -0.51987570933780
H          -1.12944889758882   -2.62711459645404    0.26961327176260
H          -1.28893997445159    0.46103585447797   -1.37993828651966
O           0.80536301597530    1.88215932413992    1.27090176190738
H           1.70123802748116    2.09509114128738    1.54152401580215
H           0.82217538986021    0.94974842872259    0.99368982918208
O          -1.00051480782235    1.26796794481326   -2.52890471810931
H          -0.47553303301271    0.62087343891589   -3.01671595858484
H          -0.33542972712510    1.92236155591145   -2.15879876530505
O           0.89147059489391    2.62246413493439   -1.36873694922622
H           0.66979802607381    2.62828353360286   -0.42125669199546
H           1.67276396214040    2.03807927520113   -1.42992784121455
O          -1.97296914640646   -2.81467060705489    1.50028521560912
H          -1.79908774703289   -1.93769857572633    1.96463464180025
H          -1.58316762792910   -3.50440543798302    2.04226970388181
O           2.73155421701068    0.60568240582787   -1.16987981044004
H           2.63470695143354    0.11620759630250   -1.99129281299056
H           2.23879392124732    0.08271444313160   -0.51937387579879
N          -1.18942804748933   -0.50399281123331    2.44354100575165
H          -0.29770174276711   -0.55076877039922    1.95737702675010
H          -1.01959907296040   -0.18764743242569    3.39022964387910
H          -1.73336440288197    0.20883409039925    1.97182247344002
