    26
        -50.45695814  Gyration_radius:  2.43955329716 Dipole_moment: 1.635
 S          -0.49001331823127    0.36621726772701    1.25329314442028
O          -0.26289214699135   -0.65434148301319    2.23341140713303
O          -1.52139197573006    0.04948853288078    0.28818059943835
O           0.82275061991681    0.64643920863298    0.49281104266037
O          -0.79016222116515    1.69501736217934    1.91434675346674
H          -1.17850855179043    2.29121684318745    1.14644922278509
H           1.18223362239318   -0.24192722448102    0.06409979735148
O          -0.87074351284812   -2.54159229855119    0.05704630849082
H          -0.84143911308495   -2.87816565700944    0.95623437435393
H          -1.30776151482434   -1.67354408926592    0.11499439234999
O           2.03824135622379   -2.05867977224016    2.19930134039143
H           2.65965455505339   -1.69193992494978    2.82986750115431
H           1.18790043528737   -1.60538677932217    2.35449343083225
O          -1.70026022712519    2.83308779358980   -0.10694254817204
H          -2.21453543611146    2.07624898692986   -0.40854773038840
H          -0.90869341396918    2.88679560169496   -0.72125183409982
O           0.42221091740106    2.56781139898387   -1.59581623014155
H           0.16958161396188    1.74089640496868   -2.07810868113089
H           1.05136817918188    2.27860525819627   -0.92808268703414
O           1.56282142167099   -1.57626062106730   -0.38505353744093
H           0.70562436796422   -2.06717009470512   -0.39015188235199
H           2.01225499122517   -1.89193453683030    0.42561126723005
N          -0.34821328890913    0.12411073158171   -2.43780527734989
H          -0.92933087492942   -0.05276795646861   -1.62306230492107
H           0.43662095975638   -0.51486540184596   -2.39287575531740
H          -0.88731745404321   -0.10735952069567   -3.26244212348945
