    26
        -50.46273319  Gyration_radius:  2.4455420783 Dipole_moment: 1.678
 S           0.80885521166862   -0.12554084785283    1.02865565331545
O          -0.59245220993875   -0.14821597402123    1.44124870840267
O           1.27457415225026    1.22849749746925    0.77934556725874
O           1.01210020182847   -0.97250547885078   -0.15150689209007
O           1.62181253106861   -0.74013790608400    2.19387734555400
H           2.55180947327570   -0.68574528261911    1.83726702913405
H           0.34888403361654   -0.60153732273345   -1.40373573034036
O          -1.95240411863183   -2.22872760291524    0.50288898886526
H          -2.43627714072586   -2.61991533459370    1.23132877394213
H          -1.36361710498650   -1.54922428461882    0.89301348500560
O          -2.56164448572586   -0.61303482596176   -1.52359165269163
H          -2.70122801800465    0.18199661200012   -0.97856774098564
H          -2.45920634771915   -1.35053954259001   -0.88294409736816
O          -0.17972387492519   -0.16627901204243   -2.18956943738263
H          -1.19122817412494   -0.41653576401433   -2.02257525754951
H          -0.11354656221724    0.85404564281325   -1.96760324660706
O          -2.26267049916056    1.46856316609176    0.24310760523496
H          -2.80183120261601    1.92498518034531    0.89034770309138
H          -1.63918509817078    0.89672920924453    0.75686881779627
O          -0.07777505920274    2.16913364666586   -1.25862618103484
H           0.53197097670874    1.96410073121767   -0.50924703843735
H          -0.95642525093717    2.23026739655865   -0.84673353112566
N           3.70174778455817   -0.27623748717557    0.71458603747829
H           3.28535355609129    0.63381565704373    0.54459373766050
H           3.44264544851915   -0.87368205120488   -0.06102379399322
H           4.70946176903492   -0.18427600958754    0.73859512835709
