    26
        -50.45565690  Gyration_radius:  2.52568433258 Dipole_moment: 3.457
 S          -0.63076320128831    0.86859038657771    0.28512735567344
O          -1.87231509720109    0.79954262259254   -0.46991710600530
O           0.37805928716410    1.68484562252734   -0.35823570599239
O          -0.11748127947974   -0.50162092961922    0.53081004784036
O          -0.89960920825419    1.49488040479789    1.67099248269640
H          -1.66231271607779    1.01471056043759    2.11212591196381
H           0.33751404686565   -1.07430515612989   -0.66914128801537
O           3.15405278063426   -1.00233284207649   -1.30313771728692
H           3.60507485374799   -1.78512940616121   -0.98171671316487
H           3.07177766006183   -0.36380758145572   -0.51623331295142
O          -2.76175885440716   -1.44161214491090    0.60489332584087
H          -2.58483379170459   -0.64990816741035    0.05491730962851
H          -1.89512777989424   -1.83963867194367    0.73461755387781
O          -0.33692624484188    0.70860772162366   -2.69530729599584
H           0.12655763860385    1.32481575236136   -2.09502934073076
H          -1.23362785865708    0.69519841864647   -2.32490863743349
O          -2.93599375532973    0.22628050314710    2.63748337723805
H          -2.98368528309781   -0.51710680987631    1.98303138102545
H          -3.71663340029474    0.76431373141919    2.48826140384020
O           0.68251939577582   -1.36025315036634   -1.63962964711506
H           1.72071976343304   -1.24452836607788   -1.59309225604530
H           0.30910137006576   -0.60421418491845   -2.23591893304692
N           2.68478725957696    0.53734319627700    0.75318341092845
H           3.36126553922159    1.17525932044137    1.15335838457658
H           2.27933603714876   -0.00627848925077    1.50603348132803
H           1.92030284823505    1.09634762936593    0.36743250729576
