    26
        -50.45621108  Gyration_radius:  2.46372348413 Dipole_moment: 3.894
 S           0.50638871182676   -1.28076708448805    1.21117286864220
O           0.14403238809695   -1.43596627554339   -0.18000281888940
O          -0.58407045440900   -1.52019431159947    2.11080403099434
O           1.10290011935222    0.11090174517131    1.43359360345224
O           1.68330868205813   -2.19603129676777    1.54196455151304
H           2.45824076788812   -1.81668087402931    1.00757434807418
H           0.41807560167988    0.89550952795991    1.34396373119446
O          -0.28820692143369    2.03952555891206   -1.55544650924838
H          -0.59397389107392    2.74755594901807   -2.12336321110548
H          -0.93914228959769    1.28174266605307   -1.65130385081575
O          -0.60844693125658    1.90251348316321    1.10164867615750
H          -0.47852864683330    2.08966912323453    0.14571530488548
H          -1.43528460205534    1.38209470895869    1.18234382397225
O           1.81649673346730    0.09730146912063   -1.57454090644246
H           1.14272333233282   -0.51355445309331   -1.22308353737526
H           1.38829298275710    0.96336942970179   -1.56797249439566
O           3.48029265894338   -1.17331497795686    0.04277160845957
H           3.84409228458574   -1.83232787953041   -0.55365285840043
H           2.97128228121410   -0.54412920917458   -0.52638699360357
O          -2.59111265605487    0.10657004067560    1.48583782947104
H          -1.92998139113667   -0.58678834974572    1.70093002758139
H          -3.10489920614304    0.23065863363481    2.28677640291767
N          -1.97880949089367    0.00515380040902   -1.48787326456868
H          -2.47525314347642   -0.40611530999775   -2.26831917591957
H          -2.64187093573445    0.13669494417688   -0.73122311193513
H          -1.30654596404183   -0.68339106824803   -1.15192808464748
