    26
        -50.45593661  Gyration_radius:  2.45793590477 Dipole_moment: 5.333
 S           0.42823352967307   -1.35485302431679   -1.05779192256649
O          -0.54247477054261   -0.27693786695024   -1.14237323715138
O          -0.15847238677146   -2.60701661548769   -0.69740568428473
O           1.53135201563210   -0.94261431394124   -0.07640340780592
O           1.18550935596676   -1.46875218114611   -2.37332142055567
H           1.82763448427476   -0.66559675915369   -2.39755348222589
H           1.14368467925692   -0.72813642181423    0.89050879467632
O           2.74713839072775    0.50877162697194   -2.15865733281365
H           2.15676451518826    1.19470466204533   -1.71986216696196
H           3.32079743239156    0.17917427498623   -1.46174115328298
O          -1.10195528942107    1.70223677698825    1.73755705323662
H          -1.53496124291593    1.95181389498422    2.55599725506623
H          -1.75847049050773    1.19838870350427    1.21852961313568
O           0.49615133239151   -0.43973389848905    2.11864733422198
H           0.02521426427946    0.41553832345141    2.00717726790874
H          -0.21325756920881   -1.13539643576145    2.13291411641356
O          -1.45505221020543   -2.12778370278800    1.63585370838511
H          -2.14055649802426   -1.52921148394531    1.30634355898127
H          -1.05710131558117   -2.53385489742616    0.84562570321923
O          -2.69810253654314    0.01243809403563    0.29635642197428
H          -3.45721267437745    0.15162354991491   -0.27195411984163
H          -1.92741684305965   -0.13199988994026   -0.30341929117481
N           1.03019782988317    2.07326552009544   -0.89168971135155
H           0.29454697701213    1.37267722108906   -0.97150009389240
H           0.69469972627427    2.92774254424037   -1.31754426358818
H           1.16310928423016    2.25351230886892    0.09570649027667
