    26
        -50.45711287  Gyration_radius:  2.43185345648 Dipole_moment: 6.995
 S          -0.10614707441431   -0.01501451495387   -1.47599846882999
O           0.43363536500459   -1.34310911247979   -1.75409502108230
O           0.91867883169578    0.90578442990710   -1.00658803330793
O          -1.20707234845815   -0.12197154029345   -0.50464663132463
O          -0.71001533260485    0.53981584726880   -2.78888757289847
H          -0.97634182286192    1.46657909752997   -2.52808122752949
H          -1.18983256010904   -1.43736948632319    0.05901315344371
O          -1.86302719068660    2.60280600765812    0.94140762833509
H          -1.19436845667464    1.94867028578014    1.22402219755941
H          -1.66268877836172    3.40689078342701    1.42495240413617
O           1.08959526855103   -1.71983271893361    1.98556876954562
H           1.70859788035744   -1.49894731649790    1.23404093774121
H           1.63798036289369   -2.05748358918993    2.69530702845692
O           0.35966447591761    1.13532945872602    1.62079906486967
H           0.40541838107406    0.22676427642505    1.93700930761777
H           0.61116253306887    1.10068031532305    0.67928944004738
O          -0.95980998565256    2.81685048869559   -1.60508128443389
H          -0.05273372659915    2.61948477867303   -1.33704728852375
H          -1.48578822530547    2.73108204722495   -0.77874202171507
O           2.53163127528576   -1.15524006932824   -0.12674413861838
H           2.63205235105019   -0.19833995389973   -0.18661980830009
H           1.89730576433956   -1.35444774754639   -0.84503889933617
N          -0.82189650197636   -2.46424901275018    0.26543997501729
H          -0.27124243425916   -2.59277614068050   -0.60053818726917
H          -1.55087023066736   -3.15627953962825    0.39379245182689
H          -0.17388780063100   -2.38567706412796    1.07746620450649
