    26
        -50.45912921  Gyration_radius:  2.50113543227 Dipole_moment: 6.697
 S           0.34937131322821    1.02689559574473    0.60059387701602
O          -0.57801459162140    0.75287866804643    1.71155598313381
O           1.67788700231230    1.35827749197107    1.09881817120793
O           0.56316916832458   -0.35994920958779   -0.11664663763945
O          -0.18851479612125    1.94922693373734   -0.36615312689153
O          -1.05308449643165   -0.15741849528838   -3.54468315748783
H          -0.29382520915951    0.41092937935095   -3.27988517048866
H          -0.75538946594090   -0.67825015476432   -4.29145189735633
O           1.34451806903210   -2.38936576951294    1.48597273158364
H           1.16988906189698   -1.73404716082760    0.78029450003910
H           0.64608490702757   -3.04320999224587    1.41644329756379
O           1.06709644241427    1.17142556040830   -2.57170811337305
H           0.61574518516125    1.63550121613060   -1.83783655701392
H           1.65871429712890    0.54863970816268   -2.14276125855117
O          -2.72843515071033    0.95740341153998    0.11845436392532
H          -2.11878194169459    0.89504385591075    0.87556113975536
H          -2.36164995336611    1.67370663259112   -0.41217350747343
O          -1.59520826819633   -1.09338214741175   -1.11364400672982
H          -2.20835977401503   -0.43308846721922   -0.70537629706741
H          -1.50827349555646   -0.82417794474076   -2.05852084991092
H          -0.34940225118405   -0.69248378082369   -0.54677509825193
N           1.35337317312956   -0.21963316618838    3.04080165517585
H           1.81729595450994    0.45082933295735    2.33630614795791
H           1.64039428057872   -0.08702837368273    4.00395755234940
H           0.35691601628640    0.07670412428247    2.82625285402889
H           1.47848452297995   -1.19542725854248    2.69260343450665
