    26
        -50.45063718  Gyration_radius:  2.43106264882 Dipole_moment: 4.375
 S          -1.52225300252554    0.84222782841267    0.72472620022072
O          -2.73678414789137    1.23197269792627    0.09978975879271
O          -0.33307954031450    1.56005989168916    0.31192569577685
O          -1.26208551189886   -0.66612590388844    0.46085866244170
O          -1.64578219047721    0.92373565079864    2.24344408214186
H          -0.73631691577230    0.74523421806678    2.67371639617484
H          -1.82107577544994   -0.89836811252190   -0.40048875033047
O           0.68935432074074    0.44205626696446    3.11914436275239
H           1.28485088343621    1.06802508341069    2.69630311197992
H           0.89778171530337   -0.43910590327212    2.71690557778445
O          -2.56880541760607   -0.86764700942795   -1.64179808445565
H          -1.90347805099164   -0.30662143052441   -2.13378229253696
H          -3.26851637804412   -0.25334971252464   -1.38723365763160
O          -0.62993608007326    0.71350444274050   -2.33724203305615
H           0.14985400439884    0.10566139701043   -2.32839770291970
H          -0.55458633964272    1.24905567368938   -1.53713303435823
O           2.17327777678333    0.74035325117516    0.35241171778497
H           2.73078689961019    1.47722711904347    0.09763626929370
H           1.24888230464369    1.07220996044521    0.31225032327487
O           1.15577687359876   -1.59366305194989    1.49841582973074
H           0.28507429626030   -1.52192937340181    1.08135237502351
H           1.74535215152272   -1.01470615189829    0.99660663423455
N           1.45036378379490   -0.99919194587322   -1.98792730025198
H           1.97546252390963   -0.53260211118675   -1.25422345511831
H           2.08047888749925   -1.19628285176688   -2.75422538090475
H           1.11540296920944   -1.88172992311273   -1.62303530588796
