    26
        -50.45912917  Gyration_radius:  2.50123705556 Dipole_moment: 6.695
 S           0.94851138414012   -0.22946565321887    0.76606913492141
O           1.32130846492903   -1.44349369763370    0.01994131449277
O           0.89340445426007   -0.49277382259547    2.19803965678780
O           1.72303333162556    0.92386861135809    0.38590807148890
O          -0.55578967561828    0.04811699818666    0.38709735957903
O           0.00829097088048    2.88541088412156    0.89439661497734
H           0.77484175716218    2.29222234615378    0.75979762944186
H          -0.65468213822328    2.33831725203312    1.32221795729778
O          -0.66656326365233    3.22927240016168   -1.68141958135622
H          -0.36328858821678    3.21369727853033   -0.74471917036976
H          -1.43078855828731    3.80605601875327   -1.71025313891649
O           1.87455862053198   -0.04647126096390   -2.20384770282220
H           2.24874390085685    0.70499814295107   -1.73013058539462
H           1.79190551818630   -0.73371001812856   -1.51851647174196
O          -2.24922438188836   -2.02458318019771    0.75368709497107
H          -1.77880765982775   -1.17010895182275    0.67314429642679
H          -2.60098388965181   -2.21446545258204   -0.11832347916848
O          -0.68923547356998    0.59241088714884   -2.03720517516538
H          -0.63445027083411    0.27964854168075   -0.64649274144933
H          -0.72084283131982    1.57814696427463   -2.04429387998342
H           0.22866276320602    0.35482626143296   -2.31933838357202
N           0.09091555973185   -2.84163779626235    1.74439579564195
H           0.66169420217401   -2.62961808839560    0.87481559684159
H           0.35225818810210   -3.69233217435621    2.22984273853787
H           0.34492071177218   -1.93157682731422    2.26227938548245
H          -0.91839309642421   -2.79675568331721    1.48290765304200
