    26
        -50.44670010  Gyration_radius:  2.45175581885 Dipole_moment: 4.650
 S           0.51919429017111    0.46634839704217   -1.92605454624815
O           1.90445812062753    0.76454508868427   -2.10349572311035
O          -0.30614488957453    1.57475235614522   -1.51023285551623
O           0.38099191145721   -0.66096425242732   -0.86907273797999
O          -0.09312240456911   -0.16090372906466   -3.17742124029822
H          -1.04687775730132   -0.35743330131060   -2.86119773213544
H           1.29212200225778   -0.83451871077720   -0.46025747378274
O          -2.20304938311064   -0.44465671863444    0.50282260488099
H          -1.57812692233078   -1.10088584075335    0.88156731642478
H          -1.82840658773011    0.40812512590800    0.75855592221327
O          -2.38027761452113   -0.41789146476044   -2.12688017481107
H          -2.76076575637323    0.45669024688569   -2.23909613336263
H          -2.28370181580931   -0.53416253313756   -1.13828330579621
O           2.73368070004820   -0.68403129774258    0.06908613543678
H           2.51525201727157   -0.14039537786294    0.85146473865485
H           2.96126023261378   -0.07885652280958   -0.65212980483717
O           1.58544999018789    0.76702843247467    2.05725201027588
H           0.75204173198541    1.14937571193340    1.71408885449967
H           1.96747596599306    1.42283809541074    2.64259291057654
O          -0.65088636225927    1.91658372621975    1.03524109632114
H          -0.94588579110324    2.81934039460900    1.16766439442473
H          -0.50901043293047    1.81447435874664    0.06227492273921
N          -0.24285638750163   -1.92885843940222    1.74852370106174
H           0.19588630704604   -2.45592003661097    1.00437203779378
H          -0.38975850228990   -2.55110514050890    2.53326498377836
H           0.41105733770928   -1.20951857808566    2.03535009924545
