    26
        -50.44670023  Gyration_radius:  2.45180557888 Dipole_moment: 4.647
 S           0.79198716588196    1.88342145942894   -0.15296577754374
O           1.30119603288887    2.40669016866042    1.07437793799503
O          -0.62032593833141    2.08127485647627   -0.37383236913312
O           1.07944322870172    0.35961979388395   -0.20520919194496
O           1.55891775046847    2.41805320796190   -1.36153318360438
H           1.11209645525801    1.90803823624563   -2.12846834736719
H           1.44592394408217    0.06864133794264    0.69385947366650
O           1.76196315263819   -0.04828470196527    2.19973802665939
H           0.88663636291455   -0.38277206582913    2.47770058922355
H           1.75171879775439    0.91488511058127    2.30142590307753
O          -2.22554573945290    0.20558281303072    0.41318029267458
H          -3.10324153266186    0.58602989768239    0.47914194937116
H          -1.62860117298085    0.94080928749771    0.12968456403308
O           0.19056239161178    1.08828967590920   -3.02315600983226
H          -0.59160995771340    1.63409168540792   -3.13512074013665
H          -0.13820556796922    0.24848653133473   -2.59105493024963
O          -0.79295527185862   -0.94553452413264    2.41070257995348
H          -1.30979907842909   -0.57377273673023    1.66693934086776
H          -1.37916544289441   -0.96580702509461    3.16878068666084
O          -0.93321288658861   -0.99177233404389   -1.85795102757472
H          -0.32461237629036   -1.58490759441946   -1.36568973163978
H          -1.51651247698976   -0.63773633024805   -1.17421450072900
N           0.51764821919554   -2.56046436472189   -0.11671927812890
H           0.15049877677784   -2.26743041387133    0.78142506392847
H           1.46589016320269   -2.21331691834238   -0.18266373669410
H           0.54930500078635   -3.57211507274592   -0.12837758372516
