    26
        -50.44596548  Gyration_radius:  2.62551005578 Dipole_moment: 3.122
 S          -0.84505079792733   -0.47059172812372    0.69567760547267
O          -2.27038390089204   -0.46027879855672    0.85331846469476
O          -0.10056762671545   -0.86965209429084    1.85345327055125
O          -0.37668223096513    0.93942675966053    0.23401332090196
O          -0.42183329151579   -1.35024394343041   -0.47719276184740
H          -0.81914426730608   -0.97747378547929   -1.35028653036111
H          -0.75115795380131    1.62220687379018    0.88613949377248
O          -1.46249409231945    2.45900566222992    1.96407733907484
H          -2.30133073156579    2.77380970157719    1.61842231399393
H          -1.68460617258088    1.78289773611296    2.65648317200879
O          -1.24526831562895   -0.45342459954923   -2.67914592849715
H          -0.34612348090096   -0.28582868871473   -3.08608132714545
H          -1.66997463728849   -1.13045329022031   -3.21057647778334
O           1.21659236373429   -0.21738248411912   -3.49866209316803
H           1.69241133604245   -1.04961865694438   -3.50945758525748
H           1.58809880384970    0.29118048115759   -2.72809944720921
O          -2.06479275809907    0.33662671332801    3.40376621084636
H          -1.23008087165368   -0.13759971701202    3.49368323738520
H          -2.47604416035443   -0.06088284430686    2.61724947105629
O           2.04622596488851    0.89197361712310   -1.26768428141926
H           1.23517709922062    1.22561105492598   -0.86856811637273
H           2.34054160729568    0.17379625078451   -0.65781855919456
N           2.50115753007950   -1.07107946781778    0.55709121046561
H           1.61810898486168   -1.01491497252746    1.06061333477291
H           3.24502143905140   -0.92829672137480    1.22967165175953
H           2.58220016055375   -2.01881305824171    0.20991303142297
