    26
        -50.45878465  Gyration_radius:  2.4673790806 Dipole_moment: 1.429
 S          -0.95740408870604   -0.28186726557217    0.77138048634438
O          -0.36057113694018    1.04161328660374    0.80413470597193
O           0.03823797519709   -1.31855193539374    0.56313750342865
O          -2.00784936618798   -0.35369941941964   -0.25965105288197
O          -1.62987660664547   -0.56159480600546    2.14284057068772
H          -2.41534505292352    0.02450156825253    2.12657544770686
H          -1.41145129990589   -0.40867881907935   -1.67093271818406
O           0.60264416697140   -2.44677126080828   -1.77946267608200
H           0.33712408034019   -2.29240228966516   -0.84924336686466
H           1.54530253181727   -2.25263053831323   -1.81010118571177
O          -3.69941303026785    0.85029911883302    1.35784900878308
H          -4.56425452609552    0.43317990469452    1.36407364404937
H          -3.25130843995473    0.55677904095354    0.54142765249576
O           0.80309263891720    1.22348447117991   -1.53308573655788
H           1.57339380473683    0.64304568563704   -1.25321264293955
H           0.33447787543097    1.39063983199744   -0.67912317260149
O           2.41820172600292   -0.45006254007375   -0.38210957247068
H           2.75730505649484    0.17399765485193    0.29614679260637
H           1.65858537807438   -0.86741916411510    0.06666257772334
O          -0.77813168476218   -0.40838874937585   -2.46974520677718
H          -0.04058032517607    0.39878589398747   -2.16927616576671
H          -0.25655108032025   -1.28232098076485   -2.37875382548601
N           2.45081166689352    1.37898872296218    1.61597891118812
H           2.65755947224590    1.09926987156572    2.56687311724013
H           1.43664181582481    1.37254617620291    1.51136988619100
H           2.75935842892203    2.33725654084076    1.50624699789378
