    26
        -50.45310015  Gyration_radius:  2.4709435013 Dipole_moment: 5.251
 S           0.81307266621346   -0.89335794223194   -0.72673720001357
O           1.35537577760269   -0.12504250904680    0.36513393959723
O           1.18518381779850   -0.43104487518369   -2.02949580174593
O          -0.72385543595548   -0.92663434764326   -0.61175147284409
O           1.20499890907349   -2.36118482547141   -0.58691350441312
H           0.83253847564106   -2.69217058166094    0.30654992289334
H          -1.09981911285194   -0.18829533486586   -0.00067330798025
O           0.32025365980805   -3.05682200941456    1.68573131783146
H           0.10884632403120   -2.18722263338186    2.15562463083201
H           1.03683979921744   -3.46609330589736    2.17587358301233
O          -1.71634545971808    0.94738374339753    0.75151890346949
H          -1.37404400087366    1.71035269518319    0.17038652570014
H          -2.66667764591238    0.93020755177680    0.61599610378842
O          -1.00593200188764    0.83143388915672   -2.96579737418676
H          -1.66513744466116    0.13555147521511   -2.95338962090364
H          -0.15657087433885    0.39326400582672   -2.77674745507216
O           1.77629259152205    2.20082683300129   -0.95242435900469
H           1.76198334530912    1.45272578647575   -0.33365121877588
H           1.95096957851098    1.80821526509013   -1.81236534939115
O          -0.87949828388319    2.66048970891218   -0.94971149897808
H          -1.03868066959428    2.16857190830137   -1.77833868285090
H           0.09686864128898    2.71710763322349   -0.88338391080437
N          -0.03647193655403   -0.68473370998532    2.75912317183637
H          -0.94476473335364   -0.26434292846981    2.60225657114847
H           0.59518034932506   -0.25440484396035    2.08468945206430
H           0.26939367425107   -0.42478064838747    3.68849661480538
