    26
        -50.45912914  Gyration_radius:  2.50115018941 Dipole_moment: 6.699
 S           1.22993298378761    0.06723026054358   -0.15059937548895
O           2.18643830778233    0.81184036973330    0.65779580024806
O           1.44745127757848   -1.35577896503014   -0.19916259699975
O          -0.14350165398070    0.32480552198432    0.57807527981936
O           1.08289705680702    0.67199271317631   -1.48553093478870
O           0.40057730260588   -2.11451813091082    2.11928407746457
H           0.91067490212688   -1.98164954046940    1.29481262879810
H           0.25186355457822   -1.23012467055709    2.46236610487464
O          -0.13712192169823   -1.50873966446552   -2.46547265814539
H           0.40206918481493   -2.12967132325415   -1.96260065897241
H           0.32178256950227   -0.65744017848220   -2.34949703382793
O          -1.87427335652343   -3.02390923805668    1.02110608851472
H          -2.49313417484874   -3.19824295309783    1.73115943584415
H          -1.01302386797493   -2.80911307877105    1.44753921908690
O          -0.97044014049197    2.89618314466136    0.62604013326810
H          -0.74698975457787    1.95513344189990    0.77587699722052
H          -1.80711649104735    2.89643273464568    0.15685734536558
O          -1.93566260377777   -0.92469103777536   -0.61273898112669
H          -0.92340482352610   -0.19846556235736    0.08195669007369
H          -1.44275251292908   -1.20454290219312   -1.42353484545722
H          -2.03737588655374   -1.74204653067932   -0.07014489568111
N           1.46921203727049    2.95949736294632   -0.45585418496357
H           0.55341052082408    3.24882904800971   -0.04777189097085
H           2.05423250985530    3.73563815893231   -0.74394896520898
H           1.93900564494880    2.27070129905743    0.22657879810491
H           1.27524932543957    2.24064972053362   -1.21259156705706
