    26
        -50.45227641  Gyration_radius:  2.45540546576 Dipole_moment: 2.200
 S          -0.75804041766550    0.80113586062892   -1.17383763781837
O          -1.82861602226604    1.54347017853405   -0.57320012924739
O          -0.99078207238187   -0.62161152555358   -1.24863298611124
O           0.54139913331237    1.05392758974474   -0.37685359254671
O          -0.43466777171226    1.33766593272285   -2.56106043150617
H           0.46469127491981    0.90004887399480   -2.83452008741288
H           0.30389811459870    1.52777260294809    0.49269518956171
O           1.71197789888724    0.13990322038313   -3.09857964166503
H           1.63531832687771   -0.33311458612653   -3.93082926708829
H           1.74848649104233   -0.56839828017143   -2.38032630585160
O           1.47031905900384   -1.71363880731912   -1.31385852451383
H           0.51112946469755   -1.56674296881118   -1.28579423546974
H           1.77004513977940   -1.50984096193495   -0.39783537516619
O          -0.89095125734989   -0.38948507102329    2.63189234440550
H          -1.59944516564699   -0.60131335143488    1.97269812040578
H          -1.24461851664732   -0.62702302496882    3.49090312309425
O          -0.40831915846083    2.08437314732076    1.72739676544018
H          -0.56120311802807    1.24256043987117    2.21313347365947
H          -1.22057097847585    2.27373871917805    1.23879740427991
O          -2.74237103378630   -0.70764311692088    0.76804379698523
H          -2.20179370365745   -1.01353261365998    0.01989607577815
H          -2.99552135109569    0.18570284528763    0.50666039517530
N           1.92178571863444   -0.99474606727095    1.29064304639592
H           2.22843821265823   -0.03892789358687    1.15837247061707
H           2.56082230965247   -1.44651851033511    1.93267316742608
H           1.00858942310455   -0.95776264148657    1.73152284117551
