    26
        -50.46916891  Gyration_radius:  2.52902296119 Dipole_moment: 2.694
 S           0.80248111557488   -0.08999090770850    0.77570678103126
O           0.65213020107494   -1.10444449911831   -0.27305978331044
O          -0.31219919962758   -0.15448668374561    1.71116396467757
O           0.94573230204384    1.23823805174165    0.19431257391326
O           2.08180450371202   -0.41778183186228    1.57957034172400
H           2.83744792592473   -0.15732358527800    0.98920962747042
H          -0.39212554280220    1.66002173322100   -0.40553861086156
O          -2.54031234558130   -1.43689032448726    1.08819114187324
H          -1.67812011737402   -1.04628719004292    1.36142954799053
H          -2.51432266794525   -2.35234865400406    1.36901002833443
O          -2.47058782628737    1.44925618346917    1.71268807454386
H          -3.10246580086921    0.72254827954185    1.69179350678819
H          -1.62239476910910    1.02455014835545    1.95043570520165
O          -1.72057917562950   -0.77562860648351   -1.41575629237771
H          -2.26637448037158   -1.10404313871402   -0.67659057758267
H          -0.80611356184024   -1.00545043488001   -1.14296811994479
O           2.40410153352828   -0.57131672097393   -2.14546247379942
H           2.44675438472215   -1.35380114043272   -2.69819784247432
H           1.69120722509046   -0.74086704525888   -1.48747469082724
O           4.01121415231517    0.05776422241590   -0.10370896092047
H           4.63695262412122   -0.67007515686014   -0.08729370804265
H           3.51246475694369   -0.01718467727671   -0.94697591024004
N          -1.41555153260742    1.73196065702854   -0.71338191177502
H          -1.97371417917653    1.81078299113049    0.17533457550751
H          -1.64015751735135    0.78999590023011   -1.16091557670579
H          -1.56727198849054    2.51280243997319   -1.34152141018452
