    26
        -50.45744220  Gyration_radius:  2.52452464202 Dipole_moment: 4.835
 S           0.18530604832274   -1.59817005445002   -0.40105684134473
O           1.09714055455092   -0.80784532216446    0.43738834600890
O           0.68945325801551   -1.77489022640727   -1.73859477979475
O          -1.14474621188632   -0.95814041026354   -0.39705982268538
O           0.03769806825864   -2.99484247426357    0.24232532887687
H          -0.22732833753961   -2.86451027623339    1.18906280975957
H          -1.15994748673682    0.19515096898947   -1.31022366300045
O          -0.49183849903952   -2.46925889762448    2.75720934349737
H          -0.67802113063693   -1.50532249262228    2.71734633737099
H           0.33692016802943   -2.56897379556558    3.23067808215268
O          -0.92057716633661    1.00398682852413   -1.91844785439104
H          -0.62763706462515    0.56908931528635   -2.79527013639991
H           0.00978851263241    1.35909097642690   -1.43968828743776
O           0.05322542341135   -0.36969373492097   -3.83181766325622
H           0.88910040846252   -0.07318469169274   -4.19811516071354
H           0.28188141100709   -1.05152034326479   -3.15279720918031
O          -0.71618527730424    0.11321215587572    2.05615143729019
H          -1.42512030080193   -0.03542439904627    1.41626727926152
H           0.08864981570594   -0.14438450124884    1.54584609421947
O           1.16092172903774    1.56305340726821   -0.71572580645915
H           1.32865350468871    0.67491227541570   -0.32171594322044
H           0.87814578508781    2.13768500363043    0.05958655090219
N           0.20653240436710    2.82840043162822    1.40900947338361
H          -0.20688893536911    2.02267426883989    1.87712927755798
H          -0.52625415330407    3.50624156577837    1.24359266537530
H           0.88112746202054    3.24266442208288    2.03892015218308
