    26
        -50.46161923  Gyration_radius:  2.45450645864 Dipole_moment: 8.345
 S           0.49974204249641   -0.46685091122176   -0.36900076975586
O          -0.41215427043274   -1.13097255284418   -1.27192423843592
O           0.94302760568607   -1.33583476386500    0.71816293460219
O           1.64433895197533    0.14786589324440   -1.05342711838174
O          -0.21405430769513    0.74617748791038    0.29688397935840
O          -1.48213788856514   -2.44000371667053    1.06207149794451
H          -1.63904062803651   -2.78331612731607    0.17842951771473
H          -0.55050363423455   -2.15294305076737    1.05982400690772
O           2.51587250889342   -0.15487546297968    2.41423721190678
H           1.86813402147816   -0.66802380343957    1.86244178165416
H           3.28719263329637   -0.71896554615370    2.49589775859281
O          -2.96457292343562   -0.24465336261964   -1.69734355455626
H          -2.73985192836396    0.54411394159247   -2.20055721293373
H          -2.14272791671235   -0.76272568358757   -1.68376153005674
O          -0.52729920715476    1.15705902613152   -2.76310538664961
H          -0.40907337087172    0.31574365916336   -2.29874856283343
H           0.35127128847948    1.40857101730225   -3.05089732074762
O          -2.52363793272768    0.02214296793660    0.92205467416232
H          -2.92410574990843   -0.01000062970490    0.02243614659977
H          -2.32442116930893   -0.91322373789268    1.15217502836892
H          -1.18761699840585    0.49526931640072    0.59619081650479
N           2.21280515088534    1.83514405553705    0.73247894803467
H           2.89850332194687    2.56662630539122    0.57653240330236
H           2.47187510284302    1.17303173542995    1.52048852891905
H           1.28121095987020    2.20953211208157    0.91542945681432
H           2.06722437813291    1.16111184099588   -0.13696900704892
