    26
        -50.45887415  Gyration_radius:  2.4667068005 Dipole_moment: 1.935
 S          -0.75362757490337    0.31025623162025    0.47407445794055
O          -0.50632498912538   -0.44490153436235    1.68624637457709
O          -1.56272290705162   -0.41085404324248   -0.49934056058588
O           0.51756780257813    0.74061269868826   -0.13858938128203
O          -1.56058637604103    1.58173465038641    0.82006094851600
H          -1.06477118515488    2.08393196288464    1.52639448788804
H           0.71659021950296    0.46339720798088   -1.54922501847571
O          -0.06141265498319   -2.13802253803361   -1.84214147800229
H           0.54995575830577   -2.36830984488904   -1.08026053238530
H          -0.83152432364472   -1.74045231833834   -1.38523852728556
O          -1.77004822441088    0.85965463341094   -2.78047868458665
H          -2.42446160846851    0.41486467143864   -3.32259768286698
H          -1.86480764666878    0.49497555425546   -1.86895978862229
O           0.67357510340133    0.11791400833978   -2.53756413403080
H          -0.20479801484566    0.50271800548654   -2.85824124482666
H           0.44834572553039   -0.93859309105147   -2.36257970959358
O           1.68213796758187    0.88858259409516    2.32825154497916
H           1.86012751916807    1.08071767946164    1.39960181946996
H           0.94605728165619    0.24560136847503    2.28830552991968
O          -0.20545357960067    2.69572686627476    2.73041419899958
H          -0.62716395368869    2.48508290997381    3.56633828162568
H           0.62054676184274    2.15194530068279    2.69011262247931
N           1.27251156566890   -2.31032134648409    0.41672444507053
H           0.60695938411816   -1.74277536689502    0.94251322045768
H           2.16494215750943   -1.83281256840776    0.45040535142545
H           1.37838580174141   -3.19067369173939    0.90577346919767
