    26
        -50.45887417  Gyration_radius:  2.46657191749 Dipole_moment: 1.930
 S          -0.74238090096674    0.24291127293983    0.52886011727027
O          -0.81004830095237    1.46154908539644   -0.26637973752668
O          -0.01180666770326    0.40760026953491    1.76969350239887
O          -0.16807004644043   -0.85614525680972   -0.27041243039456
O          -2.20935686287433   -0.12548474206979    0.84488568517298
H          -2.20899144924586   -0.93116230670962    1.43470005012686
H           0.14732329689506   -0.58862626763947   -1.66139422964969
O           0.58094140571410   -2.15539468401665    2.01314442661728
H           0.52280834277793   -1.18518728346064    2.12366370202844
H           0.55468828836687   -2.27210858172833    1.05571473100860
O          -1.89578430254133    1.07436972679899   -2.61819979882527
H          -1.68798133180267    1.25474729119086   -1.67099236536907
H          -2.04550015383583    1.92640302244177   -3.03245759761855
O           0.34869592008760   -0.16741489439864   -2.59961847369307
H          -0.54603749122023    0.23274590522909   -2.84831322496816
H           0.94729630090382    0.69718966825398   -2.29776947719771
O          -2.02462079104326   -2.14504629834064    2.46158917886354
H          -2.15796944591072   -1.83105982863135    3.35858451145800
H          -1.05841747238418   -2.34166668739370    2.37553338365796
O           1.45399189602327    1.80870164855383   -1.60618563142120
H           2.05811667151452    1.42171697521150   -0.90440960691429
H           0.63783761400717    2.00472633291628   -1.10085392392680
N           2.54597508422661    0.64383755211479    0.48256180866325
H           2.82982663856530   -0.32089129494666    0.36297472468636
H           1.68309611279537    0.63873279002668    1.02742367764915
H           3.25636763505529    1.10495660552976    1.03765700790529
