    26
        -50.45021316  Gyration_radius:  2.49980426724 Dipole_moment: 2.154
 S          -0.59313316771589    1.18735915306276    0.73662985293662
O           0.63577140157072    1.80385358427126    0.29097380114664
O          -0.37686168530843   -0.11624114685729    1.33589105865343
O          -1.57539672796422    1.07575244649388   -0.36825410517484
O          -1.22650780183417    2.12601449952482    1.80347280565946
H          -2.12396378105117    1.75345688675761    1.92107161427843
H          -1.12544168344176    0.47815645355608   -1.62566265707988
O           1.24606044499488   -1.67296265923745    0.00048127369215
H           2.00991742191992   -1.61852319332411    0.59784692269550
H           0.55459830152026   -1.17920994261466    0.50751300808644
O          -3.56641841918227    0.99792287218288    1.35560939289393
H          -3.01522090656965    0.84134353477269    0.56484366278281
H          -4.27420610158800    1.58764688414419    1.08537943662860
O           1.64564830041158    0.38355173439868   -1.62791603598027
H           1.42245824487286    1.07382392396794   -0.95309603924703
H           1.71502761335678   -0.44673754904874   -1.09427960160449
O          -0.50153563852939   -2.51329392810412   -1.88228438977614
H          -0.06610732976291   -3.08155983066549   -2.52050737478065
H           0.10189374323953   -2.42884000561539   -1.12000693814380
O          -0.65762044220257    0.01182298340817   -2.43126608829522
H          -0.74571932328916   -0.98471716417714   -2.28429184588651
H           0.40327015918309    0.22087124982040   -2.22217622723460
N           2.57918500142329   -0.11950390980473    1.84145991951946
H           1.58730162199001    0.04325901700005    2.00155015351730
H           2.91268991469004    0.69653623712064    1.34016925785499
H           3.03431084926931   -0.11978212103666    2.74684913288597
