    26
        -50.45601959  Gyration_radius:  2.52045309761 Dipole_moment: 3.835
 S           0.74063936601537   -1.01137135745583    0.67963889311761
O           0.41950787247431   -2.39942566217224    0.83285434504675
O           0.13364574281678   -0.15930973181399    1.68675940746406
O           0.25491417360772   -0.51338290388999   -0.70567542093423
O           2.22421869725655   -0.80769764761658    0.61578232035434
H           2.47833497113326    0.21460610964753    0.28905278799471
H          -0.78820892615645   -0.59739823870251   -0.76358170279673
O          -2.23524684185579   -0.71344019434822   -0.71146427941215
H          -2.46888987625336   -0.06715465483503   -0.00798098125650
H          -2.37101898519940   -1.59444862106998   -0.29316153043668
O          -2.16298306035239   -2.94839803360926    0.72129953648318
H          -1.20284206293450   -2.81944560380721    0.88027988986511
H          -2.25854223071679   -3.84486421986793    0.39506171404347
O           2.69366158911907    1.47591080462025   -0.16795895573799
H           2.43019863938092    1.43656072827890   -1.13189439964705
H           2.00018937035003    2.00623430579434    0.28097809487035
O          -2.38022036440682    0.71581927348125    1.53444406666681
H          -1.46823627348864    0.40875201794173    1.71558393529058
H          -2.93233021552796    0.31751888755238    2.20974435539033
O           0.51422608458310    2.39664243290889    1.05833751400197
H           0.39475420816968    1.50505665435651    1.44014218309549
H          -0.35979426482581    2.68372576182821    0.78622614397586
N           1.73168201479895    1.17429579967083   -2.63271995328597
H           2.32822690716387    0.73795559170025   -3.32337363653611
H           1.21935521033064    1.92122958775603   -3.08355066711824
H           1.06475825453473    0.48202893364268   -2.30482365049641
