    26
        -50.45649281  Gyration_radius:  2.46072910811 Dipole_moment: 2.106
 S           0.56587326851925    0.09583600556071    0.41897221060596
O           0.82487671665499    1.51167883139634    0.23014367443645
O           1.52352907025982   -0.72885793665018   -0.29654637713696
O          -0.81398701775111   -0.24609641304169    0.00473318038723
O           0.64170628276835   -0.18975570497340    1.93267888417728
H           0.11623458810552   -1.05214512763800    2.07138812892484
H          -1.19801787514903    0.45385795617542   -1.16731611561411
O          -0.79321457232324   -2.27528659185459    1.85780840547946
H          -1.29439887391240   -1.84409586817553    1.15305766581421
H          -0.16160082701551   -2.88953663641562    1.39288903898737
O          -1.24727512311957    1.07656984861547   -2.02929823818789
H          -0.31350639229678    0.93295688601248   -2.42190164594553
H          -1.23616049490736    2.04330231444799   -1.61710524532119
O           1.22491901598090    0.64849232327590   -2.52214512984500
H           1.73821219804432    1.43991190949639   -2.33871295629026
H           1.42269350177337    0.03459072055558   -1.77690811305931
O          -1.38653243479906    2.16445629231785    1.72181148400081
H          -0.51318573457442    1.86899878889074    1.42733973082490
H          -1.66530218035448    1.54459171271930    2.39680110964108
O          -0.93346165054259    3.24200247651319   -0.78972014612529
H          -0.10060636862674    2.88188679725664   -0.42401764430718
H          -1.52710217213427    3.24743505573928   -0.02499336064509
N           1.06668756182951   -3.47195633502388    0.37280670201555
H           1.86203137765852   -3.90364128485435    0.82635641189681
H           1.36350385354572   -2.55322130148338    0.03971774272896
H           0.83408431236112   -4.03197470887448   -0.43783941744399
