    26
        -50.45649284  Gyration_radius:  2.46040300709 Dipole_moment: 2.102
 S           0.34558410370512   -0.01040812563232    0.62046830988523
O           0.33974227614331    1.39724719673196    0.97485226182868
O           1.65086003581690   -0.44573537507829    0.15587446192295
O          -0.68455958279901   -0.29895937356506   -0.40359535485095
O          -0.06597405759631   -0.80475286138769    1.87695809661378
H          -0.40846458463065   -1.70017904093673    1.53084431791692
H          -0.76703495432141    0.73541501323091   -1.36940836246614
O          -2.34538910581888    1.28845023909417    1.54454069434991
H          -2.70560249768899    0.44812165565340    1.83050178470040
H          -1.38274344702152    1.19064586448728    1.56377949042236
O          -1.27075902059542    3.22111565760690   -0.12282251210929
H          -2.08396230575590    2.90379264757505    0.29592006493320
H          -0.56616607108262    2.82733638000785    0.42992515645434
O          -0.63978757738714    1.61658856640110   -1.95347782849835
H           0.37952561278437    1.70035495300280   -1.95248282883934
H          -0.98773929899645    2.37215850703548   -1.31090698715075
O          -0.89513681809990   -2.84072002910741    0.61906221948054
H          -1.18952423813314   -2.23253510551124   -0.07170121102103
H          -0.02145572850474   -3.19740222510597    0.30012991964321
O           1.87553802212613    1.59882148409305   -1.49124467225378
H           1.92237672183033    0.78022964140342   -0.94456743223481
H           2.10544641186551    2.31436634032438   -0.89247082607069
N           1.58762876036069   -3.27758309945307   -0.24184974406584
H           1.77731154808321   -2.27884004925744   -0.14330821553413
H           1.79097835504767   -3.53556614653655   -1.19940992852071
H           2.23930742070704   -3.77196270503546    0.35438911541859
