    26
        -50.46383687  Gyration_radius:  2.47270012728 Dipole_moment: 4.065
 S           1.09846202139555    0.41661523837528    1.12980911582776
O           0.48090389267210   -0.16795761433501    2.29399647439027
O           0.36984291735453    1.57995058736328    0.62773555144787
O           1.08028038599003   -0.64635105241180   -0.03163333626334
O           2.52520554292198    0.69922185753961    1.28961902707504
H           2.95145617292743    0.76248744747526   -0.05738276993800
H           0.21189326444201   -0.61024275065730   -0.55122249433305
O          -2.31909922239265   -2.53926086212039   -0.21449115396794
H          -2.12904776648383   -2.14577487749916    0.65986686402496
H          -3.27305941020495   -2.53039043989429   -0.30956770018589
O          -1.90397462138111   -1.15353624813734    2.10504146817402
H          -0.97454986482621   -0.81044450469413    2.17864085004522
H          -2.12455892790916   -1.47871230915830    2.97922938760780
O           0.80362251385470    1.62443285320918   -1.93662530558802
H           0.17814859828998    0.94195048128238   -2.21347400786417
H           0.56114140548200    1.80864442431720   -0.99590045778378
O          -2.23716662741617    1.04724495420406    0.40715099602347
H          -1.36925331277609    1.44750893853666    0.60700319163327
H          -2.38030374709842    0.38723742790311    1.10092863308588
O          -1.07457227989923   -0.47492495362766   -1.40332786356031
H          -1.61135738183927    0.16597712247072   -0.86675383175676
H          -1.48294587676866   -1.34346832967888   -1.20713967758739
N           3.14493428646980    0.75887135369354   -1.15709099589996
H           3.93266674859124    1.35272381297411   -1.39682025716308
H           2.23012051309818    1.11185135762984   -1.60135300018466
H           3.31121078556268   -0.20365390471050   -1.43623868725418
