    26
        -50.47359334  Gyration_radius:  2.46625447048 Dipole_moment: 1.470
 S          -1.25248607745624    0.61524478161736    0.32892791320615
O          -0.57603639803880    1.13770945491240   -0.85237171728255
O          -0.44244447231347    0.79329555859633    1.52174031279167
O          -1.64267387293364   -0.77914745048851    0.12619510330452
O          -2.55272175045981    1.44569958565498    0.55124051951418
H          -3.15432944937540    1.13462398791828   -0.15444782156784
H          -0.64669268074208   -1.68174950841236    1.19557106820822
O           2.23417337677167   -1.59405382834109    0.39432982227850
H           1.79868298373661   -1.52464467884462   -0.48178732970862
H           2.32258163222717   -0.11610017761560    0.77885064840933
O          -3.78453436298179   -0.09159775406903   -1.21206645534922
H          -4.56652955759198   -0.56029894980807   -0.91169262869364
H          -3.01252462574203   -0.58312316376313   -0.86486209384291
O           1.84885052227486    2.03462712737635   -1.44698127194308
H           0.88554681935223    1.90816729427525   -1.32112752341441
H           2.09064189343556    1.42944797710102   -2.15290297468511
O           0.01727384736840   -1.97136836210222    1.85068040493514
H           1.52433613926059   -1.92183956362021    0.99137054577343
H          -0.00473607537988   -1.28278907161595    2.52045371212619
O           0.62078404988332   -1.07632893804260   -1.70246526220397
H           0.15872233741330   -0.24831674160421   -1.45769013825949
H          -0.05849994833391   -1.75336500966490   -1.66693233416217
N           2.12931344654116    0.93238850802457    0.96735291014382
H           1.12008905881846    0.98037986386311    1.27290276019844
H           2.19626976348357    1.45162122979227    0.05525606468486
H           2.74694341077674    1.32151783885263    1.67045576551584
