    26
        -50.46161921  Gyration_radius:  2.45433161271 Dipole_moment: 8.348
 S           0.67286314232906   -0.31887436471644   -0.22364709935507
O           1.66592348551424    0.54618358305972   -0.87314318749087
O           0.17020783742411   -1.35828924769070   -1.09248093732545
O           1.18110217904317   -0.84378054487140    1.04117289118349
O          -0.47926223042854    0.66463504482701    0.13634197719501
O          -0.40378077622177    0.54970185978193   -2.96400298466389
H          -0.10801098415087   -0.13766024759420   -2.34963521257792
H           0.38825991744871    1.03852776686534   -3.19118833932840
O           2.01111669440029    1.00123092598821    2.66960088586798
H           2.89478017271096    0.74022462453857    2.93574583391488
H           1.65350899619989    0.23540838231021    2.14710089781605
O          -0.80471565935516   -2.63478703858440    1.30004395191372
H          -0.70218950842091   -3.12156638145574    0.47795454380994
H          -0.02039031311841   -2.05816100877093    1.35167824619897
O          -2.42679627834547   -1.42938475741820   -1.94798762328591
H          -2.37882939896025   -0.68255878545930   -2.55280844610972
H          -1.49856680575356   -1.63977813381270   -1.75261033659321
O          -2.52018837329063   -0.69639959734735    0.61734096184507
H          -2.08101294097588   -1.47498111920169    1.02786781438919
H          -1.36219535585118    0.14627825254621    0.36455743909032
H          -2.74002980982400   -0.97518549493257   -0.30170463141576
N           1.38646056911406    2.54306848566397    0.64143335098977
H           1.82865189814382    3.43331476818271    0.43773140247357
H           1.70525362096973    2.11179331435770    1.55730295140369
H           0.36809660374929    2.60898161959149    0.65041609202074
H           1.59974331764778    1.75205807413852   -0.10708043195486
