    26
        -50.46083228  Gyration_radius:  2.43712932175 Dipole_moment: 6.632
 S           0.58821818211981    0.68337182967736    1.03247239564649
O          -0.61769171339321    1.33338058148653    0.54102351434809
O           1.78399824231956    1.19221760812448    0.36299031949944
O           0.50820092841173   -0.77855438486682    0.87899510026358
O           0.72961965826963    0.97940803742897    2.53806435346242
H          -0.04272881304657    0.49394948965146    2.96269690849589
H           1.53717913382441   -1.25031029777022   -0.21522646166096
O          -2.70939206144862   -0.20032519808945    1.17252078033952
H          -2.58758016881285   -0.92495184593098    0.54127519765441
H          -2.09167157127526    0.49038608857725    0.86586789235449
O           0.39697014138315   -0.40544394240636   -2.87226756023134
H           0.26421882985747    0.52529056297050   -2.53893020867362
H           0.25779673290778   -0.37624563185266   -3.81977974609668
O          -1.37910745546584   -1.69862904779596   -0.82172479599581
H          -0.73828897128530   -1.45871481704530   -0.12985089734857
H          -1.04350947898761   -1.30264765882311   -1.63249693144296
O          -1.36950920108080   -0.21004167871014    3.43687881625265
H          -1.91814600816476   -0.34354248555111    2.61676884399759
H          -1.87777122100425    0.38352116237987    3.99449478025469
O           0.22390157104027    1.99446504447888   -1.84871121053670
H           1.08486676538467    2.29192701125763   -1.53949698254711
H          -0.27127639902483    1.83644188709645   -1.01450466099834
N           2.20743024127620   -0.93403724689252   -0.98246102085413
H           2.35391403407741    0.04592465298575   -0.59836621938337
H           1.65955503773026   -0.87627748697032   -1.86950696275486
H           3.05080357437878   -1.49056221341267   -1.06072522401235
