    26
        -50.46713675  Gyration_radius:  2.40186221527 Dipole_moment: 8.992
 S           0.06659988368714    0.07805026387524    1.78367809757196
O           0.47288732789868   -1.08266085219111    0.97700143840745
O          -1.30607774777157   -0.08074009641278    2.24526517197498
O           0.21924354714613    1.31370138830045    1.02364015349697
O           0.99841729164188    0.13719366801059    3.01428245578233
H           1.90103221165044   -0.00642519836107    2.61677840851566
H          -0.70581961502293    1.89547395279769   -0.27175325569626
O          -0.85941969875338   -1.89046882075488   -1.03049293109500
H          -0.32103344147098   -1.59237645679493   -0.23332666030097
H          -0.71443063742236   -2.83581521202187   -1.09511587472427
O           3.02415549876105   -0.47225535665932    1.51311481918699
H           2.36468304210570   -1.10187709279298    1.18689347649421
H           3.08524937833808    0.19256717527069    0.79776309805048
O           0.34804226011946    0.10421538777884   -2.49318041326824
H           0.43331517684996   -0.12641037845186   -3.41932905287288
H          -0.03385103609749   -0.66784666694375   -2.03467445067174
O           2.34810934158928    1.13405656346169   -0.56765673939729
H           1.60934303604846    1.35592114033259    0.03111082678159
H           1.92176004950469    0.76385279222136   -1.34885832877565
O          -1.27170634079881    1.84863334228535   -1.07429505453617
H          -2.20159874583892    0.77131617569737   -0.49546863611035
H          -0.70026300605654    1.42509018969091   -1.73798614270943
N          -2.61519894064099   -0.08755783622271    0.01638925378530
H          -2.25520827319543   -0.92970021365182   -0.46123558843054
H          -3.62828872229780   -0.06915992863388    0.05651260721454
H          -2.17994183996857   -0.07677792985045    1.00094334130678
