    26
        -50.45748039  Gyration_radius:  2.49127903001 Dipole_moment: 4.350
 S          -0.76730566191301   -0.62261872437553    0.37341229102333
O           0.45530988352235   -0.98206846299327    1.07099193987867
O          -0.57298750120496   -0.61630700359894   -1.07689964637437
O          -1.26306537531130    0.69104792577383    0.81437221748762
O          -1.81485124428813   -1.68839096860512    0.73134342879221
H          -2.66893211296375   -1.47009084495457    0.25381603559000
H          -0.20235290304590    1.66683193544711    0.82358104911066
O          -3.91123036569587   -1.10340743251096   -0.65450049684999
H          -4.00349747298979   -1.73691187597146   -1.36937377796723
H          -3.60340055405207   -0.25606067937753   -1.06861901240883
O          -2.62226307823178    0.98699191986486   -1.58995951132199
H          -1.81762942690515    0.43118507204792   -1.61201193122972
H          -2.52397460947162    1.52016093649734   -0.79399529874123
O           1.50868222574631    0.98522197272907   -1.26716546170390
H           0.72295951253582    0.40370955253899   -1.38834345333965
H           2.22309209833351    0.35675805504392   -0.99391425080351
O           1.91045299159119    0.70447702199015    2.44142195470428
H           2.81519849930338    0.45301609801955    2.24527879776518
H           1.33725993421147   -0.02278138903017    2.09798632946685
O           0.70804398868957    2.19015735664965    0.75039216675326
H           1.25993109926972    1.78599193209433    1.50422541100610
H           1.12191085283865    1.78567323965648   -0.16268724345632
N           2.92977562534507   -1.09941647071382   -0.36479722494683
H           3.74552609233179   -1.30894434402916    0.19746629980282
H           2.93583084111860   -1.74036619609262   -1.14896139385222
H           2.09751664124403   -1.31385864602186    0.18694077157938
