    26
        -50.45139063  Gyration_radius:  2.52603414003 Dipole_moment: 6.302
 S          -0.93662887694701   -0.64181755900447    0.59658297145235
O          -0.78819309683657    0.65952842636434   -0.01596026252985
O           0.29656830607859   -1.32944634949030    0.85211331294065
O          -1.84231245603492   -1.51153546574452   -0.28094975669691
O          -1.72600823982720   -0.48500810377645    1.89241102167749
H          -2.50724029056136    0.16908884461456    1.64426765445860
H          -1.22073712339782   -2.05308498103555   -0.92459366571697
O           1.45096458470217    2.25818681713374    0.49622870520141
H           0.60625491232033    1.82634471826311    0.30715689208467
H           1.93113184218508    1.64905883638646    1.07248514124060
O           2.88890883031291    0.74207484515236   -1.30310182542608
H           2.50258682155805    1.55271231910923   -0.92642650916112
H           3.12102483039677    0.21578551728047   -0.52774722318459
O           0.57308841439572   -0.17227494027670   -2.27764057320075
H           1.49833095941205    0.10453643830596   -2.07683510298236
H           0.02767032943194    0.29356160101588   -1.62944390553991
O           2.65510542164647   -0.17041379629174    1.39138915632458
H           1.81048987067224   -0.62281822770427    1.20577570343609
H           3.04706605907881   -0.62328820372918    2.13924081807939
O          -0.08892421776058   -2.60081076358769   -1.68700523131927
H           0.22677823479015   -1.73854715622217   -2.09053097378271
H           0.54722822647687   -2.81239476140440   -0.99649666502169
N          -3.41211061732883    1.15571519635308    0.94399874406771
H          -3.76783861878100    1.94073196554796    1.47344986429860
H          -4.17347115997377    0.71392035068016    0.44607856101194
H          -2.71973293596103    1.48019445216047    0.27555317832284
