    26
        -50.45088085  Gyration_radius:  2.63388822873 Dipole_moment: 7.383
 S          -0.01462314114341    0.88455897245676   -0.49623792737044
O           0.04633915514123    0.51950549242162    0.90016299784158
O          -1.31544873871008    0.77382894009339   -1.07909285428560
O           1.00250157384052    0.03052687669100   -1.28231759839126
O           0.51339505551398    2.29923230114675   -0.68914461770682
H           1.45880006765711    2.35777879182840   -0.30346045335657
H           0.67192739650637   -0.92406595507278   -1.33576411094960
O          -1.15766520352137   -1.90776967270375    0.92350527170425
H          -2.08000729243345   -1.69531982949465    0.63758793008539
H          -0.75473755707425   -1.04796741461356    1.13060991755462
O          -3.38034438340056   -0.98764097976856   -0.20758281843323
H          -3.28226526948985   -1.35438041608911   -1.10496113599506
H          -3.02842908182642   -0.09280169243286   -0.28613655621340
O          -2.20328489268058   -1.36772511687269   -2.66471989683776
H          -1.45338868080262   -1.93772645565419   -2.46071374429217
H          -1.93065803280357   -0.47924620116098   -2.39701838761463
O           0.08834220147260   -2.35105638758740   -1.26005681229257
H          -0.43282422252058   -2.28918963331071   -0.38804974535526
H           0.76093685179938   -3.02247138694892   -1.13089062182515
O           2.79886520500929    2.50790173073088    0.38490922518322
H           2.95176712683851    3.43953649184880    0.55839003190053
H           2.65898794462201    2.06132447155527    1.27556360915788
N           2.16114513439356    1.30488395274907    2.64516004861927
H           1.32051977226643    0.92466364839673    2.20907011153398
H           1.87534085193637    1.82882224272439    3.46284337206747
H           2.72480814941657    0.52479720907884    2.95834478527442
