    26
        -50.44031576  Gyration_radius:  2.51481514492 Dipole_moment: 4.391
 S          -1.29644427508949    1.06039944976931    0.22274494797091
O          -0.35565803828362    1.74818846925433    1.05288615098653
O          -2.60927916588329    0.90116230270715    0.78368973508910
O          -0.75026033419536   -0.36886767677802   -0.12252313130117
O          -1.34132236198323    1.72529697638891   -1.13924374858565
H          -1.46149328780528    1.03041476104521   -1.90450376668549
H          -1.03285956144138   -0.98871394586540    0.57803422616800
O           0.34929118835322   -0.20020052773643    2.89636125583492
H          -0.46864761653142   -0.70735615917217    2.88841452826279
H           0.16841401358871    0.62443708542344    2.42200772167784
O          -1.44946158548870    0.09065757695996   -3.02795732334026
H          -1.52653417517551    0.59126654563907   -3.84425914542909
H          -0.48892563912522   -0.18861555538670   -2.95118418405498
O           1.10532754886419   -0.29452322411866   -2.78279092711146
H           1.68688692273925    0.11483089235920   -3.42602835022872
H           1.31768260954466    0.15148513720391   -1.91791561404487
O          -2.09853723850367   -1.38794575749370    1.93535788576778
H          -2.52872418471881   -0.53759991945360    1.70643133758365
H          -2.77397354342983   -2.06759067158324    1.87901618080686
O           1.76613231540275    1.01994921008490   -0.61061673686801
H           1.08251025228491    1.45196380875385   -0.08510970332658
H           2.15960048323269    0.34081221488939   -0.00543968663012
N           2.60660460955101   -0.85428796377990    1.15381250648747
H           3.51114102485437   -0.73661105218587    1.59186736430701
H           2.53374348699692   -1.81292626995786    0.83824750669397
H           1.89478654198935   -0.70562570662483    1.86870094996669
