    26
        -50.45052761  Gyration_radius:  2.42781864016 Dipole_moment: 1.397
 S           1.22500041544710    1.18322000894845    1.14782074858468
O           2.28619867322990    2.05660021652524    0.75467314682209
O           0.94442996931075    1.00549294156576    2.53348563023943
O           1.46882937664704   -0.21404641568304    0.52217785538899
O          -0.09527867589273    1.66487583713405    0.48538818924609
H          -0.02246991416781    1.60296206038305   -0.52774784741373
H           1.98005811204575   -0.05104652057205   -0.33376708081965
O          -0.87271540700679   -0.96201795535806    2.38120671678836
H          -0.18573007185209   -0.26997790926427    2.44947905007668
H          -1.14873692812476   -1.14971762549619    3.28089714502213
O           0.02543792121485    1.31512943468734   -2.02716706227775
H          -0.47084672241046    1.96053586623016   -2.53442141143316
H          -0.58109477783956    0.46974984043364   -1.98035135944773
O          -2.56761337798890    0.30417978977523    0.59358610708498
H          -2.13594391208285   -0.29769243315207    1.22423993745319
H          -2.05898997130396    1.11918287136473    0.65901189996881
O          -1.52785645161501   -0.64235490756207   -1.71482808220648
H          -1.03217124694186   -1.39518688147076   -1.30044356815357
H          -2.09334356124018   -0.31238205180154   -0.98313050476357
O           2.64640089685301    0.68780475584020   -1.54189420835150
H           1.84918653732786    0.94801848161706   -2.03256029878313
H           2.88199937263589    1.43818009394733   -0.97286609443939
N          -0.26145164927575   -2.48247611929444   -0.22292385008853
H          -0.54008163466075   -3.45551309399115   -0.20181205614304
H          -0.45540371809348   -2.08084944325438    0.69028281255232
H           0.74218673581201   -2.44267084147785   -0.34833582491242
