    26
        -50.46295758  Gyration_radius:  2.43519777597 Dipole_moment: 7.021
 S          -0.45636577666996    0.45303334389344    1.49328097851907
O          -0.56939836997791    1.52212464188715    0.49263495214167
O           0.74213703569693    0.53821162700817    2.27283799719135
O          -0.43439619215040   -0.89095358015283    0.66304513157856
O          -1.68913284709710    0.32867938835727    2.27327274320580
H          -2.58632079846358   -0.22745557199181    1.34887738701236
H           0.02388437866457   -0.74724778081033   -0.22113042411132
O           2.57337324575996   -2.03316714847345   -0.64575394704326
H           2.25900855058540   -2.69866346270339   -0.03219825464213
H           2.86189661123823   -1.26952670783885   -0.08575090501852
O          -1.97754223236048    0.53326533613503   -1.46233797621484
H          -1.28616537504599    0.01872357782268   -1.90041650397933
H          -1.48912615678949    1.08503779338402   -0.80334491981124
O           0.65314040884958   -0.53805046508556   -1.64882999527416
H           1.38378266843498   -1.18574998067922   -1.49285459737345
H           1.08199111263398    0.33580177468093   -1.59853875667962
O           2.95686766146863    0.14821668012129    0.81257430284133
H           2.24496680758149    0.23898480172160    1.47576082158876
H           2.80951480630938    0.87532297847093    0.19278782112581
O           1.60257334460277    1.92005227930203   -0.89511224094003
H           0.81814288635328    1.87763293223058   -0.29614275484287
H           1.64089385873995    2.81653091875372   -1.23051550182973
N          -3.18637171310403   -0.68363592505188    0.51797500944486
H          -2.78805372461085   -0.25100040741510   -0.37960150478201
H          -4.17549898108738   -0.48164873063295    0.62447205981421
H          -3.01380120953732   -1.68451832295005    0.52500906809309
