    26
        -50.46550241  Gyration_radius:  2.39853067322 Dipole_moment: 5.156
 S           0.91446263395691    0.76088221554258    0.49583976648060
O           0.74935015558702    1.34209849630326    1.79855792827384
O          -0.36881449663233    0.68495584250381   -0.23458438467657
O           1.41873045181869   -0.72027585436630    0.64347472268286
O           1.93204529026339    1.36322518024178   -0.34933973355987
H           1.93268715001735    0.24953623655024   -1.41640146068440
H           0.71863862208680   -1.29159122938298    1.06034702788467
O          -0.01651977276885    1.66521043701572   -2.70031549659651
H           0.48067204533143    2.47416514746027   -2.56122205943958
H          -0.31662661859913    1.38953047055372   -1.80832767141919
O          -0.43407755781974   -1.77200535105464   -1.25287067104121
H          -0.68958753423060   -0.89144788448546   -0.91424087391206
H          -0.49294250892887   -2.35111990886960   -0.48538643020291
O          -2.56312946914637    1.39166837459500    1.16320963402718
H          -2.41564786019331    2.30661312847205    1.40953489622022
H          -1.82019980212340    1.14712978663141    0.57853877501236
O          -1.18357542318967   -0.10826763927231    2.93974442068630
H          -0.41678046687508    0.45915699938782    2.71963223344211
H          -1.92904552141911    0.32004160337100    2.47548508328856
O          -0.46186389542263   -2.20559683899740    1.63783714169353
H          -0.14804039869310   -2.84054157572896    2.28441816821565
H          -0.86853329123049   -1.45297640175993    2.17254410914558
N           1.61147123920303   -0.36397298088707   -2.23639646244959
H           0.96590589595425   -1.10881986951146   -1.86222797576010
H           2.38285952127210   -0.75130675647354   -2.76913808965842
H           1.01856160178386    0.30370839221323   -2.78871258765990
