    26
        -50.45854380  Gyration_radius:  2.56784085462 Dipole_moment: 6.605
 S           1.00748917863576   -0.20319172604389   -0.51184679575708
O           1.24321022971848    1.21747929345890   -0.59412177850620
O          -0.39126199144196   -0.55638125733831   -0.73733272768512
O           1.34612193823038   -0.67327132943278    0.95237197449493
O           1.89950157979227   -1.01517424606829   -1.34081750303535
H           1.88674521803962   -2.27613693581508   -0.69295825308952
H           1.06748302983560    0.11078219334893    1.53730619878010
O          -2.59383813735963    2.87072872235904   -0.44672113366412
H          -3.32595609233969    2.62093290269773   -1.01255768938298
H          -1.80127589878392    2.88191594322950   -1.02515700671217
O          -0.39169997018302    2.77144740986538   -2.00558198084562
H           0.13404274280537    3.56490484431853   -2.12259154432608
H           0.18931797764427    2.13285144555003   -1.54320499531527
O          -1.82745682824267    0.78382838943658    1.10230118206807
H          -2.20174258781796    1.58333037839757    0.67750182949875
H          -1.42761988525478    0.27828070542824    0.37080336557673
O           0.50859682262842    1.43463670747460    2.07352829179831
H          -0.45622749779021    1.27028488354737    1.88256425606932
H           0.82673283231349    1.96535076008796    1.33298966452706
O          -0.76826995906944   -2.80496303896361    0.47925796333457
H          -0.76016987028076   -1.97805360245703   -0.07114416994667
H          -1.02867599671166   -2.51482085400426    1.35702302355498
N           1.76791557963134   -3.18903094619079   -0.06418584863695
H           1.99759771591464   -4.03310939636245   -0.57930363428009
H           0.73901105632180   -3.16568597355748    0.22845281584202
H           2.36042879376309   -3.07693527296556    0.75342448562950
