    26
        -50.46460246  Gyration_radius:  2.41103825967 Dipole_moment: 2.669
 S          -0.59433938831642   -0.03825873034162   -1.26346180436714
O          -0.42455058160063   -1.45260656964856   -0.99630460731380
O           0.58110263029135    0.73143751032959   -0.83613119626880
O          -1.79828730750306    0.50118090589529   -0.61768932620769
O          -0.74734059322579    0.14185227182581   -2.79103338470808
H          -0.86612245693886    1.13095349796956   -2.87316408175035
H          -1.86501418983202    0.29435014465707    0.83406347180006
O           0.67329707427409    1.01298728178737    1.78838713312943
H           0.71451289392479    1.05794956341974    0.80471196267564
H           1.21221507517422    0.23488559434637    2.02671813441630
O           2.26397901003616   -1.31505888392517   -0.63531507547112
H           1.87003620108924   -0.43257601282308   -0.78272942618072
H           1.58775041235431   -1.90842375687523   -0.98662358787168
O          -0.74477494160218   -2.21384814683384    1.51181315019705
H          -0.70276385665847   -2.12471901523930    0.53255248511435
H           0.17790686326579   -2.11789811254914    1.81526196254635
O          -1.66017990132411    0.09330942769542    1.83733718680511
H          -0.73659355721138    0.57554408913234    1.97202036792043
H          -1.39879300701352   -0.93001096043489    1.82577783418944
O           1.84669458028779   -1.44795083713395    1.94650658955250
H           2.59928825245805   -1.80958480906035    2.41578020961844
H           2.09282416258283   -1.43724091105778    0.97855415543323
N          -1.00811043745368    2.67599593222563   -2.31208427951585
H          -1.26992326809539    3.55162263834079   -2.74689297117855
H          -0.11412812073641    2.78852951195079   -1.84934589742100
H          -1.68868556889734    2.43757840634650   -1.59870897543457
