    26
        -50.46525764  Gyration_radius:  2.40653740017 Dipole_moment: 8.941
 S           1.90814612838833    0.31689817043903   -0.06102956463039
O           3.14925715082944   -0.34898050477745   -0.30946412863140
O           1.11140347294555   -0.33769143689354    0.99208593734856
O           1.01753567620210    0.21178509697861   -1.37079357966720
O           1.97567649522342    1.75163360977779    0.20101350243564
H           0.59693446494448    2.22524066109474    0.31370879345235
H           1.27828069409081   -0.69445546350991   -1.73135435611224
O           0.06834551091501   -2.61346936601100    0.10061198887420
H          -0.81487558680270   -2.28262136113026   -0.10311218229405
H           0.51561432645795   -1.86925258192830    0.55108159413511
O          -2.30804113585113   -0.91752999646065    0.17570070319484
H          -1.91044989093894   -0.48233652370858    0.95659134799674
H          -3.18296170070445   -1.21379681186058    0.43037413808930
O          -1.54982266439362    1.08303543006390   -1.54570483625050
H          -0.67891986819219    0.75794891426274   -1.82848670363072
H          -1.95396839609809    0.32992693373934   -1.07651197273123
O          -1.00311994573014    0.43578646115400    2.16674499271362
H          -0.93841303821430    0.16981288259413    3.08517031378013
H          -0.14360687778662    0.13103209825436    1.74001686779599
O           1.84021532278789   -2.13748149449088   -1.85901353382119
H           2.62697603483099   -1.87302787648746   -1.35559193800218
H           1.23915046214483   -2.58530412135531   -1.22444044173445
N          -0.46578107986850    2.46328395673125    0.42110333156182
H          -0.97214235542103    2.03506594922975   -0.41470777989064
H          -0.60754153330246    3.46582290476667    0.47717944725350
H          -0.79789167645215    1.97867443951929    1.26882808876039
