    26
        -50.45251198  Gyration_radius:  2.42097281098 Dipole_moment: 4.252
 S           1.09803093056975   -1.32144102675236    0.26639309770003
O           1.27919373181826    0.02561717165585    0.76002986987310
O           1.81855628580403   -1.62309605136250   -0.92679255505329
O          -0.41972026210004   -1.57069358569599    0.03674736043379
O           1.40077053386928   -2.30908019925565    1.38204910766543
H           1.01267807532048   -1.84635665601444    2.22129706832129
H          -0.78714711632418   -1.07176639414233   -0.76762176193347
O           0.43349808697047   -0.85918005886133    3.19050917880647
H           0.87853597418338   -0.08439062810931    2.82737790747201
H          -0.52411021380676   -0.73706113248501    2.94703835790216
O          -1.83966698799721    1.40917859431704    0.19510599449606
H          -1.01016310593712    1.89833385302188    0.06429622944316
H          -1.96656904647671    0.90494840480743   -0.61606285787546
O          -1.32115522884341   -0.33821434264889   -2.01201613954052
H          -0.44744659476061    0.09734572595550   -2.32733803623041
H          -1.56639098662928   -0.98412741177088   -2.67707268934725
O          -1.95293348042345   -0.48037910056960    2.14359032025959
H          -1.95476136153297   -1.22718325815590    1.53799026671244
H          -1.95676852313059    0.31175329152544    1.56472821883560
O           0.72241882728148    2.42502918471410   -0.20099321111703
H           1.03493916475614    3.09052374010560    0.41417456696264
H           0.99581655070620    1.55807498032868    0.16463892597036
N           1.01140386455227    0.61192944392897   -2.56933662175443
H           1.40547723724091    0.77356862378764   -3.48688791186685
H           1.55123229841931   -0.11720240399779   -2.10597404464877
H           1.10428135647375    1.46386923568735   -2.02587063150140
