    26
        -50.45940119  Gyration_radius:  2.541208733 Dipole_moment: 6.837
 S          -0.23473800091251    0.66861509967332   -0.79769324420187
O           1.03984422368748    0.84608424221894   -0.09580200641486
O          -1.34490190252894    1.24349247890294   -0.07833876220218
O          -0.44208946890076   -0.86826234999810   -0.94501960838498
O          -0.12775788243336    1.13494244601492   -2.18631186466264
H           0.60749053883675    0.12107046433769   -2.79437541272174
H          -0.76175468928593   -1.26947686188045   -0.04155349193637
O          -3.36355328639662   -0.09838796723098    1.04022693950400
H          -3.53879614055699    0.37622021919614    1.85518447372603
H          -2.73047284090506    0.45243247497947    0.53630859165441
O           0.13180894545067    2.00803130573384    2.11065961245451
H          -0.71759873321912    2.20914195453945    1.70321294248013
H           0.65411573749250    1.66020602432984    1.36212348720183
O          -1.28487480219457   -1.78100811333426    1.23194549042137
H          -2.18141581031340   -1.38213906096223    1.21460305347192
H          -0.82940953120685   -1.34420047146301    1.98883483710383
O          -0.13575892399722   -0.40157334322237    3.21569989392757
H           0.75152455672056   -0.65543871120111    3.47238798757527
H          -0.07015211300681    0.53182544095820    2.90003350420829
O           3.07838860474853   -0.21831736262743   -1.28218920280640
H           2.34189041869118    0.15553400971771   -0.72668557812661
H           3.71880992724410    0.49027806912647   -1.36788095648456
N           1.22720834187776   -0.77980949343421   -3.06572156087718
H           2.11062105746107   -0.65823575179181   -2.49648858199994
H           1.40093917240368   -0.87241065791458   -4.06079639592231
H           0.70063262124131   -1.56861408465296   -2.69236412698780
