    26
        -50.45416120  Gyration_radius:  2.47933573949 Dipole_moment: 0.513
 S          -1.06128518942947   -0.99685107057062    0.12939921788761
O          -0.01250294495105   -0.96412455176497    1.12009290688650
O          -0.77068298876735   -1.79603776622371   -1.02013387040563
O          -1.40740412687395    0.43825803803865   -0.29392731757480
O          -2.36334439293261   -1.48239077617732    0.76905986449127
H          -2.58531740257787   -0.79169184336037    1.47545527127904
H          -0.64472527268460    1.11821664965657   -0.18825274285771
O          -0.24296875419960    1.26134746132872    2.54867954762813
H           0.04139500894462    0.40406307212431    2.18005953217629
H           0.03246118894916    1.90989146431578    1.89012969185855
O           2.04265032982301    0.94243325755874   -1.65516549202296
H           1.39189014573709    0.64298959867880   -2.31702725948130
H           2.32397420853496    0.10958635822392   -1.20199619279003
O           0.02347987486872   -0.22395968875848   -3.06000795642421
H          -0.31938010144795   -0.79981519483718   -2.35104840169673
H           0.04624470475691   -0.76010257464667   -3.85431229032587
O          -2.70231595156066    0.31233754812097    2.55656858344328
H          -2.82109861905884   -0.07393228391638    3.42741667863282
H          -1.83628735306799    0.79787225263181    2.58613948469245
O           0.44309507252375    2.14361639753962   -0.08360460780872
H           0.15508837797984    2.91415504526596   -0.57831590141575
H           1.16545729108927    1.70236846379746   -0.66133629972310
N           2.34047872362624   -1.46167456610823   -0.48155449997621
H           1.60318230329058   -1.34477693993094    0.20970851327267
H           3.15150803901681   -1.84270391537330   -0.01019430527876
H           2.00640783841782   -2.15907442563013   -1.13583216445223
