    26
        -50.45011763  Gyration_radius:  2.47969117052 Dipole_moment: 5.675
 S           1.65803539363934    0.67254613244553   -0.41022510898252
O           2.32557923246946    1.28853274233151    0.68990316695514
O           0.44341259007318    1.32677575480423   -0.83193794694009
O           1.33036061564470   -0.80915568698537   -0.07211665732550
O           2.59534858114527    0.50760893018636   -1.59870306346146
H           2.09120879670754   -0.07814823073005   -2.26863446098060
H           0.92087893612032   -0.93897177390598    0.83145031961096
O           0.52659824334100    1.45633848149483    2.74252537918662
H           0.51178259831923    0.51244489080870    2.93511296819176
H           1.26723124827297    1.58450047976681    2.12712696802190
O           1.20196357572776   -0.86399623873413   -3.21670381428095
H           1.06392845466680   -0.32876649938018   -4.00167040934275
H           0.30623537179150   -0.93984137009751   -2.76428639074416
O          -1.51199677216730    1.70746088042337    1.00023613793433
H          -0.91209246051521    1.76709230589264    0.23850181067424
H          -0.91298166393999    1.78325747598756    1.77330257026249
O           0.13182957812034   -1.31722204820482    2.16046790502902
H          -0.79301775273970   -1.17437305697424    1.80879557549309
H           0.23471747825543   -2.26035197064581    2.30115023065171
O          -2.20146906378675   -0.79113283662561    1.11890263181998
H          -2.01079014154629    0.18965770190934    1.00705280356395
H          -2.96556313272613   -0.83642137996892    1.69611069847176
N          -1.13443361664730   -0.72062145534723   -1.98923698396112
H          -1.36186279128543   -1.36161696812882   -1.23905757720217
H          -1.99258755719034   -0.51682640718008   -2.48650080614176
H          -0.81231574176887    0.14123016686185   -1.55156594649872
