    26
        -50.45046648  Gyration_radius:  2.61696734029 Dipole_moment: 5.285
 S           1.10132501733168    0.67761067179624    0.46099683356311
O           2.22773915474502   -0.00695726019315   -0.08816459455202
O           0.10419916704078   -0.18668684004961    1.05103744503803
O           0.41581076459312    1.54890429962553   -0.61738159721790
O           1.56358372649437    1.71177868877333    1.47758154357210
H           0.75368121963283    2.25838538248754    1.77774237346697
H           0.15390863368160    0.97344400633572   -1.40698414611964
O          -0.46503593831347    2.98062923816039    2.31841497474941
H          -0.32022943005933    3.17123933080421    3.24793280792105
H          -1.21096458363058    2.30677286577254    2.27078660416810
O           0.83964294642077   -3.38865762071159   -1.02788121839323
H           1.24279546235195   -3.39417025915421   -0.15797543708652
H          -0.03428451578774   -2.95360004212524   -0.91829075215869
O          -0.16386028330349    0.02310989549735   -2.57998007543883
H           0.67122953247480   -0.56685927079534   -2.60231553002268
H          -0.18172147854874    0.49324786852495   -3.41578534493802
O          -1.27439264185844   -1.75109484072180   -0.67320866411154
H          -0.83514746516264   -1.23950337110178    0.02880359067115
H          -1.20887942672814   -1.20901391258724   -1.46879446922088
O           1.95650573932923   -1.38014322909985   -2.40688692780539
H           1.64129182394010   -2.24218376993053   -2.05106667602958
H           2.32616096056434   -0.91495891487362   -1.63704706102369
N          -2.22203408761110    1.01886723130687    2.16679450134071
H          -1.50267800864618    0.38664341672837    1.81522941353665
H          -2.93694561827179    1.09272403019284    1.45418079129849
H          -2.64170065071698    0.59047241531987    2.98226163487966
