    26
        -50.46041390  Gyration_radius:  2.44141214351 Dipole_moment: 7.920
 S           0.67942321034970   -0.03167887780667    0.52643704895841
O           1.41453004997742    1.18605405835280    0.15912865569355
O          -0.74035416177843    0.12656641049184   -0.10539807783156
O           1.29167453137616   -1.23093406085477    0.00341632179762
O           0.42902598825675   -0.06919302325007    1.96561631571322
O          -2.16933582565355    2.25034195511897    0.75605323351487
H          -1.75170656470005    1.47884636728433    0.32164674201402
H          -3.04643112302312    1.96725834758172    1.02025133079261
O          -0.72283701373539   -2.68430607698465    1.18125492315568
H          -0.95794987567503   -2.27254248272801    2.01401467354488
H           0.07181383804663   -2.21684458246312    0.88961281612745
O           1.92624047731384    0.30759744565772   -2.33026816003896
H           2.38940158548901   -0.50953363289461   -2.12700626049833
H           1.83155341693847    0.76258788534747   -1.47299493178629
O          -0.00185405101527   -2.95034992507978   -1.69020936477170
H           0.66940342237945   -2.50640157388328   -1.14623572585199
H          -0.63369187244696   -3.29455382722929   -1.05026732232302
O          -0.61227622009353   -0.49854761245223   -2.50569062062030
H          -0.74221080562563   -0.12187233005563   -1.14235741047080
H           0.28987662517829   -0.14881297004651   -2.69137271855818
H          -0.50228337773471   -1.47605971743288   -2.41048458248187
N           0.17157345618048    2.44340300510211    2.00430458383778
H           0.79965613600128    2.33000365759370    1.16189687192365
H           0.20430664589905    1.41166790919364    2.31321662122018
H           0.50997245207877    3.11085675594801    2.68842562157777
H          -0.79752094401540    2.63644689549400    1.66700941538956
