    26
        -50.45543862  Gyration_radius:  2.47518128665 Dipole_moment: 1.159
 S          -1.25889353134204    1.04048900346447   -0.23547840024767
O           0.01639356571201    1.40758562247444    0.34345159760175
O          -2.32426913063298    0.98799899952397    0.72135857350118
O          -1.11019799221340   -0.31986441620724   -0.94239363026604
O          -1.61509864333428    1.97747524972196   -1.37098177767819
H          -0.95506265849261    1.79965406427546   -2.15619721275210
H          -0.99780575222858   -1.07295390982018   -0.25947360341836
O           0.88327218890448   -0.41944801785405    2.11357677281919
H           0.71153324496267    0.34160823948469    1.52563287402321
H           0.24965193103442   -0.32571809247604    2.83629886293426
O          -0.76162230285386   -2.05552690780704    0.87033063971009
H          -1.49775794391843   -1.95756123238282    1.48831375738436
H          -0.00857438006616   -1.60891993692823    1.33600082523692
O           1.94444170286880    1.05517836004747   -1.50499400395470
H           1.40832952502189    1.33586925515078   -0.74399285502207
H           2.11437290890970    0.09832378659776   -1.33388124040502
O          -1.85097788344389   -0.46704732053737    2.89990437507458
H          -2.50185549949757   -0.28342497644287    3.57879099934960
H          -2.06980306214358    0.12486091040427    2.15095140024554
O           0.07255262412173    1.57618891682260   -3.17873630535395
H           0.30243577663012    2.41218495883195   -3.59146019076863
H           0.87204866702936    1.30575367281225   -2.62053037354783
N           2.11877901042677   -1.50668794216340   -0.62336795703141
H           2.13147196487899   -1.33026282297445    0.37506039797016
H           2.87872373143635   -2.13993826373999   -0.83708402574050
H           1.24791193824032   -1.97581720025285   -0.84109952966705
