    26
        -50.45543832  Gyration_radius:  2.47539545749 Dipole_moment: 1.158
 S           0.90670997742757    1.37714646959087    0.02673648624577
O          -0.45941674694976    1.28077308758844    0.49655116852484
O           1.03422606478306    2.08795995392916   -1.21088086637212
O           1.48496931809154   -0.04354695380159   -0.11282598661982
O           1.78892474379442    2.00204451646406    1.08754541565838
H           1.87015489060651    1.33017489789308    1.87855456539479
H           1.05714704474353   -0.53269633449736   -0.90304629197169
O          -0.54664351833950   -0.41502070419556    2.58844370128266
H          -0.63674400900381   -1.25156610279652    2.07298586458321
H          -0.71769667156898    0.28200807155911    1.93256603150928
O          -0.55282465963076    1.27016733670319   -3.18518207268692
H          -0.56683449129500    1.91089096411423   -3.89766933609425
H           0.01786670109441    1.65527058219109   -2.48859617848115
O           0.27287605120043   -1.14312661515727   -2.04667669721955
H           0.36672963879473   -0.54786273413618   -2.80210380050268
H          -0.65264521844998   -0.97344048670866   -1.73408351891979
O           1.85404848935126    0.38691573187741    3.00180808715563
H           0.94196388696359   -0.04088566140878    2.90727453657824
H           1.83898064975093    0.87331863231973    3.82958978111452
O          -2.00297157662599   -0.14463621363652   -1.17877921724813
H          -2.05368837298849    0.42795567146347   -1.95456819956419
H          -1.59657154087883    0.40714490218117   -0.48246918433761
N          -0.87024098830607   -2.40626997353362    0.77150435556568
H          -0.02264615696018   -2.46965926149431    0.22062197283940
H          -1.58231656261775   -1.97659833513586    0.19147484312654
H          -1.17335693292708   -3.34646143132788    0.99122457040860
