    26
        -50.45695815  Gyration_radius:  2.43957022999 Dipole_moment: 1.635
 S          -1.13410715121104    0.80739043960171   -0.08510185952186
O          -0.27186572833752    1.12035593054632    1.03469688582794
O          -2.32536621085556    0.09257100365353    0.26634981596839
O          -0.32675333647791   -0.01622546095204   -1.10987226022896
O          -1.46684346193406    2.07062442322059   -0.85086154678468
H          -0.58187906972529    2.62955328400018   -0.83767375500929
H          -0.11619617029745   -0.96595270850516   -0.71600225037264
O           0.01003893659236   -2.25201306263204   -0.03816579693394
H          -0.10146642960609   -2.01845195974408    0.91507459458409
H          -0.85078796176194   -2.64588368318955   -0.28831473018583
O          -2.61477057837900   -2.48144965092203   -0.48130492452770
H          -3.14051341796591   -2.53722240232596   -1.28038492976477
H          -2.66160870858811   -1.55283030633552   -0.18445903122290
O           0.76239770579708    3.15846760013882   -0.61295550518836
H           0.87805667249466    2.91861729387184    0.31297521006925
H           1.37387299508312    2.55333656906621   -1.12934605364567
O          -0.65112677254970   -1.20681052543341    2.31158237597434
H          -0.50596370365978   -0.28111189506063    2.04723446028241
H          -1.60392370468142   -1.31430920884173    2.36893167789747
O           2.15247197382062    1.27122022783289   -1.75253230838085
H           1.43729001898421    0.75054139065428   -2.13034420118135
H           2.42688869160287    0.77151327040139   -0.94302421209726
N           2.39778270228851   -0.08990018975124    0.56276085162092
H           3.14514050881247   -0.02892986429826    1.24239300601511
H           2.20543010676587   -1.07155786029347    0.40271168588514
H           1.56380213378269    0.31845734531766    0.97563281092383
