    26
        -50.46610753  Gyration_radius:  2.40608330538 Dipole_moment: 4.820
 S          -0.26942734736851    1.44138623795772   -0.47077545057620
O          -0.79248984407965    0.06276863836138   -0.45366072574656
O          -0.54743169187845    2.10842895627381   -1.71352228476576
O           1.30985861108623    1.25247804775075   -0.35000504082354
O          -0.64088453728742    2.15244380385629    0.72833642883576
H          -0.79905576090717    1.40815405291099    2.20011084571503
H           1.55387704152762    0.58714193658835   -1.07296967731507
O           0.44300246701740   -2.12528263777084    0.10173664339224
H          -0.07182984119683   -1.33186959916640   -0.20642243605291
H          -0.21678549861427   -2.78879368148244    0.31175511695535
O          -0.25614088837857    0.24702166152816   -3.51068133346079
H          -0.48574449777459    0.93935208902196   -2.84416265190960
H          -0.07331330978460    0.72133226909638   -4.32412232651632
O           1.75644714690974   -0.60199057366314   -2.04305689569065
H           1.47509720099491   -1.39480336224777   -1.57131350097483
H           1.04066353308816   -0.40035634004239   -2.69693006480653
O          -2.45775620994313   -0.78669822059184    1.40134996814673
H          -3.33661909401147   -0.43411208567756    1.25601057005667
H          -1.91021399027025   -0.46475716127552    0.64892567349915
O          -0.78775513212233    0.69161895011954    2.88243447512526
H          -1.49722031091700    0.08143385991520    2.58725449997853
H           0.46540677820685    0.06550549982597    2.41543771674210
N           1.34188958949763   -0.28820561469669    1.84627626678487
H           1.49055718923085    0.42525401557215    1.09884396027486
H           1.10055882724536   -1.17623089075174    1.34961617054729
H           2.16530957989475   -0.39121984111888    2.42953404250041
