    26
        -50.46275624  Gyration_radius:  2.44392483403 Dipole_moment: 5.656
 S           0.49125382193066    1.49943966479713    0.13399233429382
O           0.79992729296290    2.06444602510858   -1.15025423344412
O           1.48905211610159    0.52777444006570    0.58783022534459
O          -0.85383827565300    0.67313875070172    0.00528498490529
O           0.17769966003102    2.47319123287458    1.17527535784525
H          -0.57576167796288    1.71620625364661    2.13485021185863
H          -0.69502547596582    0.01320894409191   -0.72801086769298
O           0.19680560973343   -1.10423779638949    2.17651283624149
H          -0.30836794126150   -1.67364471431404    1.55940511772202
H           0.81597850349569   -0.58256656718527    1.61202073458013
O           2.29259543284673   -1.08150565362600   -1.32058067904210
H           2.72957079712685   -1.80328856459799   -0.86516466899241
H           2.13053177521902   -0.38854440901539   -0.64040012092013
O          -0.30508856435667   -1.04392107284705   -1.86692694654017
H          -0.38102403503457   -0.39513010821502   -2.60459091908115
H           0.66609671319277   -1.17584328065714   -1.76132672826832
O          -1.27874467815680   -2.42698394441046    0.30563211082179
H          -0.93830785097875   -2.10965100971617   -0.54685366026057
H          -2.22281712930615   -2.26404620895555    0.28749239404553
O          -0.10511286864990    1.07673287725487   -3.43376484957759
H           0.65273627095811    1.08890288318147   -4.02157510740121
H           0.18193088713214    1.56393820639560   -2.62985409921788
N          -1.13489071875249    1.01631558541330    2.77860316093626
H          -2.09354093787634    0.97907487431857    2.44744094024145
H          -1.09385415578880    1.30239143138807    3.75129763879127
H          -0.63780458103311    0.05460214068299    2.61366484283304
