    26
        -50.46198786  Gyration_radius:  2.42733712871 Dipole_moment: 2.757
 S          -1.33584969539082   -0.47333221721922   -0.65704231454879
O          -1.37422185158336    0.87429496683199   -0.10063185993238
O          -1.63565766731994   -1.48873808663494    0.31809310624612
O          -0.03774161113824   -0.69855123812683   -1.31758480753302
O          -2.42445520471942   -0.55235975014306   -1.77419734189176
H          -2.11130785696096    0.09703125173920   -2.42840907572374
H           1.30177308636213   -0.23151898527987   -0.67748925317817
O          -0.73855100425811    0.89216665975987   -3.26883364787983
H          -0.25922925490637    0.34117573501836   -2.61589859564256
H          -0.53196557127350    0.53195147144790   -4.13412622010304
O           1.63710251652275   -0.70948746355169    2.09881300550426
H           0.79400513716144   -0.26585855868743    2.35681882467685
H           1.36992530714244   -1.62176838157280    1.85646030976919
O           0.45422204658354   -2.89886211599010    1.13989271650477
H          -0.31286941053380   -2.42265865687312    0.75581746298441
H           0.10318782097791   -3.70123509609107    1.52843381960837
O           2.03356984962789    0.24764677028194   -0.17192437216138
H           1.63591833662756    1.27525732337252   -0.10289323632503
H           1.97514243930542   -0.15396358959237    0.80961562536296
O          -0.82124598390976    0.26979244845575    2.42065585441270
H          -1.36145500008766   -0.51612275079982    2.53823393985076
H          -1.07554148339549    0.60077407821176    1.53579294344069
N           0.86604020945645    2.46682941009697   -0.03814643764558
H           0.98839910209863    3.11540853306594   -0.80448434822487
H           0.93419137045753    2.96926739245042    0.83739950201185
H          -0.07338560715172    2.05286084924208   -0.10436561955424
