    26
        -50.47155356  Gyration_radius:  2.4997601954 Dipole_moment: 5.038
 S          -0.26393786890930    1.07212999751491    1.35829416385873
O          -0.10536133815963    0.56416286906325    2.69261480666244
O          -1.22412250813791    0.27200777311279    0.57911250019121
O           1.00414337119150    1.14161762720251    0.61304110795544
O          -0.83114197592016    2.51418664317394    1.44711864116353
H          -0.61508442487069    2.91407589595056    0.56820065866981
H           1.35668280902164   -0.19676012194801   -0.09400263490691
O          -0.53198778981222   -2.30446489362891    0.66744561847697
H          -1.00622274191660   -1.44796157527909    0.67971196564170
H          -0.13791348610041   -2.38096885334922    1.56272659410594
O           0.34363849687690   -0.73663270877518   -3.01448966276947
H          -0.29872003250451   -0.06069139260772   -2.71042114026294
H          -0.17484954293290   -1.46936126163084   -3.35162743232836
O          -1.45132522467308    0.93214831472422   -1.88719866452320
H          -2.38938237038346    0.96537870591449   -2.08139570529366
H          -1.38086909104457    0.65483623386503   -0.92817327982664
O           0.75167829677111   -1.90605546358145    2.96906093603549
H           0.49670161815828   -2.18657005423849    3.84952951218264
H           0.50931447303079   -0.95268864315838    2.91631356183519
O           0.03419474558008    3.06252817900030   -0.94892030502999
H           0.73794376086185    2.48844799874673   -0.60334734504174
H          -0.50076290635029    2.49357926144944   -1.52635978867296
N           1.43611278562919   -1.13849672328609   -0.58173669319014
H           2.37076797190620   -1.51661419963341   -0.47638524627435
H           1.17452223398658   -1.01436333096644   -1.58620076279299
H           0.69598073871617   -1.76347028756666   -0.11291140587366
