    26
        -50.45202112  Gyration_radius:  2.47536050103 Dipole_moment: 1.182
 S          -0.84284324827035   -1.26252220772051   -0.24219587008713
O          -0.58860018263948   -2.22564956834632    0.77896593062863
O           0.35481294871612   -0.65530036876980   -0.78931659281063
O          -1.76858092396675   -0.14423431248794    0.27405797321914
O          -1.66662928994986   -1.87592943061559   -1.36463975502051
H          -1.99567201139791   -1.10731619334303   -1.95301272096531
H          -1.37567749003648    0.32021049106372    1.08979998372921
O           0.88025678927043   -1.01739362033609    2.73014034591391
H           0.40970686010089   -1.67188108210203    2.18741669266491
H           1.68990796804487   -0.78701798494311    2.20928066356553
O          -2.34809559531805    0.06023796153507   -2.85080730063544
H          -2.45487279001763   -0.23160125630889   -3.75927221217510
H          -1.53708963171917    0.63849008461190   -2.83368904084280
O          -0.02865159642491    1.25521940022051   -2.67604240540677
H           0.06974973115059    1.99940340453254   -2.06840166978434
H           0.31749142580637    0.49510461203420   -2.17752503129064
O          -0.71752314560858    0.92922907583460    2.32569770242012
H          -1.34274643033004    0.97599301154821    3.05161794205155
H          -0.04234944256033    0.20803498186253    2.57593360757344
O           0.64615237062186    1.99260001497260    0.02900106176744
H           0.22146295166605    2.07205715212238    0.88825660856963
H           0.64218704771896    1.04588683637350   -0.17173023323606
N           2.76046560141134   -0.32343619711256    0.92768370091765
H           3.67860504049778   -0.73539514378208    0.82291433129674
H           2.85628833644036    0.68179880372271    0.84276766067951
H           2.18224471675244   -0.63658844461976    0.15309864707027
