    26
        -50.46303510  Gyration_radius:  2.45308826606 Dipole_moment: 6.484
 S          -0.13047082782221   -0.84107361751106   -0.69239328083852
O           0.96640951569201   -0.88804772282918   -1.63230506471313
O          -1.42324014957134   -0.62140658232427   -1.31998496119297
O           0.12513143841487    0.37532951563306    0.27438304337495
O          -0.14616323133344   -1.98325488906817    0.22675132941550
H          -0.23594462074611   -1.49266951066699    1.58180360708851
H          -0.04869173584046    1.25368119587171   -0.22283615972060
O           2.66145554294949   -1.53285356948348    0.27225048694272
H           2.33843280879825   -2.41892044288357    0.45141344126244
H           2.13862023070356   -1.23718593247695   -0.50502139443980
O          -2.92079845551184    1.39232734725113   -0.46836022514811
H          -2.44249235659187    0.57547234861178   -0.72890093591425
H          -3.64546032029298    1.47765859886893   -1.09046995429181
O          -0.36716852168356    0.97103374599724   -3.19078373874220
H           0.49877556351087    0.54904348720194   -3.19769014388330
H          -0.92465958731698    0.33075129661337   -2.71217877626836
O           2.13380607454248    0.12209772136101    2.25930040463283
H           1.91630322173287    0.92506998397771    1.77635407476137
H           2.47127958826958   -0.49970870066577    1.56209055534385
O          -0.48251100446565    2.48005587954316   -0.99375475862026
H          -1.43277389244825    2.40464941277213   -0.78044195055826
H          -0.39452057965965    2.14681639276500   -1.91685877655140
N          -0.19844907936380   -1.00294044110696    2.56619204266143
H          -0.29165576442504   -1.66954094211278    3.32573786242936
H          -0.93318456027928   -0.30208857197871    2.59543450104340
H           0.76797071270386   -0.51429598334365    2.56026877179741
