    26
        -50.46322901  Gyration_radius:  2.39960767971 Dipole_moment: 6.335
 S          -1.01334266836581    0.70886808879362    0.49337873954915
O          -0.12718770089643    1.25156536267936    1.52980362356072
O          -2.22200818583777    0.13768438861502    1.03505105404911
O          -0.19179694832056   -0.49083240096612   -0.15427881829990
O          -1.20201447058094    1.62971507231021   -0.60826205561526
H           0.27756642856002    1.63021285470594   -1.48601272373508
H           0.26278333412595   -1.01846605433083    0.54001958579021
O          -0.96511059694957   -0.84288332292027    3.14841076022067
H          -0.72058517120628   -0.00880902995022    3.55878959907876
H          -1.56698339120033   -0.57800099234448    2.41711360109657
O          -2.33061595022387   -0.37881690327299   -1.95889313463042
H          -2.04938373998376    0.47854324689656   -1.59304487367428
H          -2.68140272296373   -0.85461375035277   -1.20258582366906
O           0.11472716669867   -0.77605509811673   -3.12465631319174
H          -0.72783826860962   -0.78443841953026   -2.62414961983228
H          -0.12819474287356   -0.56440433022315   -4.02832793843732
O           1.12548170453669   -1.67265109679284    1.79617510230424
H           0.41067726324943   -1.38367533113544    2.42782751049613
H           1.08143799340767   -2.63088470648605    1.77655020200903
O           1.14175200106882    1.34155501265343   -1.84984049844269
H           0.91390303929426    0.51628826702689   -2.34332354102175
H           1.84802678129639    1.00591951593603   -0.58647724644143
N           2.16446729723721    0.85408896165406    0.45900137632341
H           1.27566511829011    1.11493724134200    1.01517663641104
H           2.95215498378823    1.44238583589497    0.70942602938902
H           2.35782144669689   -0.12723239208200    0.65312875679588
