    26
        -50.44967013  Gyration_radius:  2.56345440068 Dipole_moment: 2.055
 S          -0.76755675674100   -0.06394741760927    1.05964569225609
O           0.49870833670161    0.59716761128397    0.81933308063126
O          -1.11673984330142   -0.17246111505185    2.44240000288194
O          -0.69623656851073   -1.46650130171976    0.40758214753596
O          -1.87763465484170    0.63172817270535    0.30603525541230
H          -1.89909510822761    0.37794156368293   -0.74365132999071
H           0.19451333472924   -1.82224028941072    0.72129933334963
O           0.48162792042255   -1.79486248456295    3.83822759071470
H          -0.13179831636125   -1.11956971082501    3.48563690228634
H          -0.06485558435355   -2.46180627051772    4.25778148977233
O          -0.11160004195148    2.87330048403814   -0.52081613819217
H          -0.98864085375007    3.05201040147441   -0.17635556291899
H           0.23751487435103    2.13713705429149    0.01138864344523
O          -1.95398664551121    0.14990581519592   -2.11182033022016
H          -1.17524716335597    0.70380484133135   -2.50649349727135
H          -2.76537633662805    0.53189540374350   -2.45471159473271
O           1.59426355624078   -1.89100905662193    1.43049668746599
H           1.82495006176742   -0.95673999035917    1.35874010159976
H           1.35457724510051   -2.02390494009171    2.37586886357213
O           0.00152534817992    1.55649226066452   -2.89569501581643
H           0.03030452141742    2.21683771802142   -2.17527664051071
H           0.72016502406341    0.91614137384002   -2.67744810144129
N           1.56942664860696   -0.31629731215140   -1.75807990801259
H           2.56934697301739   -0.46254462180055   -1.81219030382104
H           1.11904817038578   -1.21803517020944   -1.85672862480273
H           1.35279581851224    0.02555699050555   -0.82516875314151
