    26
        -50.47013076  Gyration_radius:  2.39317001961 Dipole_moment: 3.799
 S          -0.35277659041569   -0.29873918899752   -1.06443645091782
O           0.16366370422103   -1.55500141019449   -1.56032530789010
O           0.01354805651135    0.85902989071316   -1.87083921404896
O           0.35260560359343   -0.05923340836687    0.34000022559579
O          -1.77757884672092   -0.32406624153528   -0.77025991348241
H          -2.03140414710562    0.50877298121228    0.48527565179532
H           1.28592204376330   -0.40462392569192    0.21457646087736
O          -1.07907843741888   -2.63284789275354    0.60700319221934
H          -1.98652088454748   -2.52729700971640    0.30982625351326
H          -0.54282848612574   -2.38157827888980   -0.16580271296663
O          -0.79269460832849   -0.95367969671468    2.72245496116460
H           0.15697971525103   -0.81629120193408    2.75166065585964
H          -0.92156292136389   -1.63343020565051    2.02108744577512
O           2.63441118691536    0.98318359408930   -2.17789835659362
H           2.84474644999577    0.85188942795763   -3.10399544908368
H           1.65301239773629    1.00823272943307   -2.12631276595022
O          -0.23973560346571    2.70788970896290    0.03688542404909
H           0.68067455609071    2.85175149959195    0.26756592903055
H          -0.21763751966505    2.12285953777346   -0.75182117406185
O           2.58440178904323   -1.06020510670130   -0.43163985551355
H           2.02293555896409   -1.62967807134067   -0.97976579107739
H           2.86342708254950   -0.32857622095925   -1.02146500465824
N          -1.89124734134794    1.06896948041693    1.38435180090546
H          -1.44578627194964    0.37363126069696    2.04858465789795
H          -2.75849732418063    1.45279506387205    1.74335589151439
H          -1.21897915918426    1.81624269296534    1.09193345509432
