    26
        -50.47013087  Gyration_radius:  2.39286389682 Dipole_moment: 3.803
 S           0.37623284169010   -0.03600472043150    1.09776931528529
O          -0.25314349003778    0.90158515622641    2.00081959999215
O           1.81664999353700    0.14029913973507    0.95971506915060
O          -0.21501629924704    0.28045061802451   -0.34352670206256
O           0.02354129977124   -1.42458899059737    1.35228911255899
H          -0.11535399381141   -2.14634727332629    0.01270827209841
H          -0.31021129959689    1.27883702369787   -0.36256082458455
O          -2.55346690644208   -0.39112115468540    1.33709629316226
H          -2.38190583811006   -1.21463376102632    1.80112488509730
H          -1.82967913444720    0.19672968498029    1.61701809704971
O           2.38106261731240    2.62624754715565    0.26732638337419
H           2.86765947668827    3.04396291257140    0.97987081399802
H           2.26431301803846    1.68764790074929    0.53561659341439
O          -2.49295450733130   -1.01180735427007   -1.30650027691897
H          -2.61420626139115   -0.80286194734389   -0.35144133225446
H          -2.29946302734855   -0.16477266436096   -1.71478632156256
O          -0.29359851545404    2.81051016448568    0.06960367328287
H           0.67043852726508    2.98330263960724    0.02762299033392
H          -0.46640357929765    2.55184650231235    0.98785864134628
O           2.07939909215334   -0.99788545905751   -1.43975253680639
H           2.15046921344970   -0.22009007578437   -1.99748599508426
H           2.10292754006879   -0.65588954885187   -0.51923063610537
N          -0.20794174168504   -2.35077337249666   -1.03199089239130
H           0.63029184442202   -1.87329725158685   -1.43864178790339
H          -1.11039476617202   -1.86713822647731   -1.30538349932253
H          -0.21924612398922   -3.34420748929209   -1.23513892520956
