    26
        -50.45257007  Gyration_radius:  2.54168606428 Dipole_moment: 4.512
 S          -1.92935529714994    0.14312715354203   -0.80713794345114
O          -2.95246424870360   -0.75320228922258   -0.39135078341777
O          -0.63338997258629   -0.49255747636737   -0.98675402776764
O          -1.74885048784631    1.30378600136919    0.19828120041153
O          -2.31822975572953    0.87864989032934   -2.08352737986586
H          -1.65497135237563    1.64738076499824   -2.16723907616611
H          -1.28337797619666    0.96730371280982    1.06257040242650
O          -0.63862159493979    2.77818923695590   -1.97560435697633
H           0.30847804084083    2.50010773236172   -1.91343882356330
H          -0.87121486562592    3.11881060377007   -1.10703346817027
O          -1.02005882213525   -2.13958254030506    1.11518304826524
H          -1.97246131888541   -2.27293121552444    1.09222698315768
H          -0.81675518712680   -1.74042422395424    0.25030456990595
O          -0.46102535679706    0.32596052371378    2.12353330597556
H          -0.68319026775969   -0.62266015830638    2.03223721274857
H           0.42357971692795    0.42012843957272    1.70297174337465
O           1.88018175202096    1.95946846808028   -1.65057284053883
H           2.17753662474406    1.38466300796204   -2.35810163201436
H           1.91196412529296    1.42774781057706   -0.83237649466449
O           1.55630862409213    0.17540841134606    0.37350447561072
H           1.93515346402049   -0.67615264078396    0.69567461581236
H           0.81574688769244   -0.09205770622508   -0.20672800772951
N           2.02711342642003   -2.30706158252443    1.35746779181000
H           2.42577829083825   -2.38390198738216    2.28490903148743
H           2.47805091544496   -2.99582341490866    0.76847646700450
H           1.04407465551700   -2.55437651188703    1.42252397631990
