    26
        -50.44947951  Gyration_radius:  2.59915155753 Dipole_moment: 3.352
 S           0.34793657393599   -1.29667923790382   -0.22907580975833
O           0.66387275861642   -0.26617353387788    0.74505991097594
O           0.84469522153013   -1.03137329073241   -1.53649951415798
O          -1.17962705581972   -1.48673244997712   -0.22778014615927
O           0.86119308598809   -2.64953439574820    0.25948884283750
H           0.23305855021433   -2.96377924763328    0.99947257320700
H          -1.58257950986933   -0.52881807640232   -0.13508285617663
O          -0.85547744047733   -3.18065382919152    2.05439662652954
H          -1.67105365766274   -3.04617219900956    1.56258787425727
H          -0.74178160123992   -2.38194559239604    2.62424865268855
O          -1.87482143184605    0.88583251498073    0.04441171278931
H          -1.84639449451002    1.33895236870863   -0.85045189569917
H          -1.10381985060674    1.19701170688466    0.52843100608793
O          -1.60121807566523    1.96284238010540   -2.29897566741691
H          -0.62917063508898    1.85125396831632   -2.50021324140099
H          -2.07073536600323    1.54222784430583   -3.02046668606561
O          -0.28183492724446   -0.84266047755410    3.14902580652432
H           0.08505978094578   -0.52632965533745    2.29616728129522
H           0.42829502328945   -0.78776957120134    3.79096784822290
O           0.93080242330260    1.46352712026254   -2.69246515404192
H           0.97106816992415    0.51410822053539   -2.49952625930667
H           1.40175722168707    1.88157356856016   -1.94108870653713
N           2.06943849136958    2.12510601075724   -0.28347497348306
H           1.84887165942456    2.91724855268078    0.30689508394255
H           3.07587146755568    2.01844881194940   -0.29136043165997
H           1.67659361864660    1.29048849912315    0.14530810259345
