    26
        -50.46847038  Gyration_radius:  2.51426898907 Dipole_moment: 6.108
 S           0.57394456721336    0.52789705956021   -0.32669227447517
O           1.06733085057963    0.35927302008548   -1.66896056145285
O           0.36926287195174   -0.77016451625958    0.35356789402745
O           1.38680566596149    1.40484119949993    0.50450759364584
O          -0.82649696554910    1.20210652003615   -0.37507852443605
O          -0.39261048264643   -2.05709777013292   -1.86272928458609
H           0.28668320629600   -1.78353443594589   -2.48595880045746
H          -0.08722978853310   -1.72291077933332   -0.99956555543520
O           1.77718475822637   -1.63949396187514    2.43455630649484
H           1.39483877283120   -2.47896351578851    2.69660787386476
H           1.37469846703607   -1.41877068194797    1.56658582715162
O          -1.49015892310567    0.01062752974286    2.07535076553619
H          -2.00276951297394    0.64159604016896    1.56221327529405
H          -0.92214722013541   -0.43994644245789    1.41347523845759
O          -0.27299436606456    1.09757287486554   -3.84332017425591
H           0.33256206917170    0.83166581800034   -3.11983483827658
H          -0.13233747928977    2.03590180283531   -3.97577294258801
O          -2.08115055617444   -0.01436419576802   -2.19163058592850
H          -1.66480218238104   -0.90441790872316   -2.12848278113511
H          -1.38700364215755    0.73257939037036   -1.10160077118327
H          -1.66338968569165    0.39921255596139   -2.97426016438439
N           0.87720227092405    0.81837549016731    2.93471874202551
H           1.12355553137791    1.47204608178539    3.66894445831696
H           1.35347550010072   -0.10628949708632    3.03431240544160
H          -0.15399331155751    0.63072161270483    2.86358178308334
H           1.15953957458562    1.17153670953801    1.94546507526247
