    26
        -50.46544680  Gyration_radius:  2.48207044943 Dipole_moment: 3.330
 S           0.37348628124500   -0.91335489000023    0.41391903788179
O          -0.94382719274475   -0.84487036920145   -0.23851249214075
O           0.24861857773121   -0.91428421680780    1.85515089267358
O           1.21434062562492    0.19223334133963   -0.05556271376020
O           1.04425665418158   -2.23708711932303   -0.00826841013730
H           1.18579638551526   -2.17270027070976   -0.99627414548878
H           0.59364920336625    1.45501399716948    0.55316071521557
O          -0.55264134146116    1.30970617084058   -1.89652411851350
H           0.40581286755271    1.26061602447550   -1.94934394485989
H          -0.79328954320828    0.61263998163068   -1.26460482141897
O          -1.27172372632028   -1.31797443912956   -2.88361528960672
H          -1.27766738060623   -0.38042081352473   -3.11585354154550
H          -1.38506874317345   -1.32772100144155   -1.91579399828764
O           1.23940159567130    1.05784895382824    3.30446294436381
H           0.88141078472599    0.24604107887401    2.87333467931674
H           2.17493791112984    0.89249580013761    3.42990463156204
O          -2.08708501688861    0.68194904032617    1.57882710563830
H          -1.86037194184315    0.05482847098357    0.85879343495547
H          -1.86386225302302    0.20752490404767    2.38540938927945
O           1.22362731987549   -2.11036750954074   -2.58658473152408
H           1.32371870193780   -2.99683214276857   -2.93974326774315
H           0.30321950874775   -1.81963538881553   -2.82227828746238
N           0.08049538217815    2.15044123182999    1.18802859431215
H           0.05957224248239    3.08787096177515    0.80128515043364
H           0.57472078002126    2.07757783224512    2.10525477987125
H          -0.89152766272962    1.74846038178896    1.32542839698210
