    26
        -50.44643744  Gyration_radius:  2.46328431351 Dipole_moment: 2.244
 S           1.03752759829526    0.66993811592939    1.09241554416677
O           2.38207812134005    1.14884177226467    1.17775261580598
O           0.85781744536919   -0.67346315210766    1.59630435080068
O           0.60293954005825    0.68050990322533   -0.41170370266237
O           0.04203388488657    1.58417416978432    1.75758345268573
H          -0.57759982573345    2.12904745793377    1.06682155300503
H           1.46841412893671    0.54572033748699   -0.92164093070362
O           2.16283862258870   -2.21352373362921   -0.09836541083063
H           2.56498746365533   -2.97649368000387    0.32056990828501
H           1.69094707177789   -1.72311979273960    0.61133599414452
O          -1.67395538925181   -1.38316117429115    0.81677188766781
H          -0.87087707480226   -1.14426801134879    1.30273299338889
H          -1.35194879267396   -1.80622628253810    0.00061742809481
O           2.93980031208384    0.14740846921880   -1.24523546599568
H           2.91172645165945   -0.80189689359815   -1.02960228155744
H           3.25619406001294    0.59770180568587   -0.44596512823290
O          -0.27373981411851   -1.84746829144821   -1.51023050018821
H          -0.15704963371721   -0.89111226590856   -1.49224537697510
H           0.57027058063618   -2.21329723425445   -1.21097731867722
O          -1.49608543846103    2.79104404686061    0.25930191810334
H          -2.06268485572615    1.99694527473897   -0.11009717431561
H          -2.06434592234920    3.28386070529986    0.85658823020598
N          -2.87466479401532    0.76745171142944   -0.53083239906442
H          -2.51073632045233   -0.00426259507481    0.04511196860891
H          -2.69645786241484    0.52898460802037   -1.49831040724956
H          -3.87742955750354    0.80666472907200   -0.39870175849863
