    26
        -50.46857992  Gyration_radius:  2.40038945173 Dipole_moment: 7.183
 S          -1.28488650085425   -1.00819277358489    0.50766450124196
O          -0.73804421978395    0.04317708741949    1.38267238493527
O          -0.68537324482530   -2.28745329255721    0.75394435253969
O          -1.16578487396356   -0.57891315870830   -0.89781316350471
O          -2.80535646581634   -1.10752840877019    0.81547118723427
H          -3.16581697035710   -0.26245457418596    0.47685396233240
H           0.33086215692917   -0.90103700239290   -1.66567445845517
O           1.93279088487744   -2.30536183382006    0.27849742417128
H           2.16492689932215   -1.61600108822567    0.91505270226250
H           0.99630417908613   -2.51501196661333    0.47305317548505
O          -3.48583621138619    1.16583404281429   -0.40525402220482
H          -3.55436264988186    0.80990406146698   -1.29502659970403
H          -2.70553762285856    1.74256698374096   -0.40248747499682
O           1.29675644142971   -0.89859513302344   -1.84179692188315
H           1.65826393411293   -1.56015206751875   -1.19568329358537
H           1.69688830958805    0.38492958538788   -1.25582854910981
O          -0.75533566184940    1.90572296563730   -0.42319682385333
H          -0.92364357569038    1.02960963649158   -0.85630572765265
H          -0.76908828904082    1.62570058188026    0.51212034999089
O           1.80696434601656    0.10200964100244    1.76989195868509
H           0.81653569604268    0.01631821037407    1.67283928069791
H           1.96742825342585    0.22883782431143    2.70586353824405
N           1.84213949040348    1.30793983736278   -0.65816858965238
H           2.56797175284536    1.90545323571448   -1.03587579925987
H           2.05863543897177    0.99299591590087    0.30618320517935
H           0.90259848325879    1.77970168989808   -0.63699659913889
