    26
        -50.45487626  Gyration_radius:  2.43808070846 Dipole_moment: 7.951
 S          -0.73880866850702   -1.52213289170385    0.28195161200698
O          -0.97716080073656   -1.91312366118887    1.62815864791128
O           0.63914807211301   -1.28229661951896   -0.07798549142409
O          -1.53999463545731   -0.21684889123820    0.01010747463604
O          -1.32614137880964   -2.53099094797333   -0.70420689043247
H          -0.90054923367967   -2.25765768016364   -1.62707364717494
H          -1.10662040620019    0.28977643670084   -0.75328557036220
O           0.10093036362506    0.19318482715538    3.10085922499758
H          -0.31983759620862   -0.61400450986389    2.76857145998112
H           0.97776736064049    0.23302704198051    2.69155957374745
O          -0.40188615627357    1.12787224282499   -1.84083196844331
H           0.23998608860678    1.58749507109846   -1.19004916308299
H          -0.99374660372314    1.82370281389528   -2.13666759414270
O           0.94704294395621    2.29201796413372   -0.02007955232602
H           1.57532987003540    1.69872378368455    0.42174179947980
H           0.20829333700640    2.39795521929445    0.62754149656772
O           2.26986344561234    0.24369984980976    1.30668002349595
H           3.14995209572206   -0.13383655557532    1.33383448905327
H           1.71329030726069   -0.37001034969145    0.77794907373060
O          -1.11495700293065    2.10133429670167    1.66231020037014
H          -1.72028633329083    1.50069758956972    1.21711694255187
H          -0.69957029467272    1.55212401456245    2.36363605495305
N          -0.15450266434876   -1.66624878397924   -2.78954634524044
H           0.80015084670681   -1.97293887781764   -2.65425256428935
H          -0.17219602879735   -0.65596699409505   -2.67269249791986
H          -0.45549694766901   -1.90555437854642   -3.72534680862434
