    26
        -50.46870541  Gyration_radius:  2.4890745748 Dipole_moment: 3.882
 S          -0.86658720674538   -0.59547947846076   -0.60636056297232
O          -1.51803428407350    0.16880545932614    0.45509962145230
O          -0.20197075775015   -1.78014072643320   -0.07871255952774
O           0.07576510600986    0.24364577611962   -1.35197993503646
O          -1.94098284383724   -1.11039432944328   -1.58861884567216
H          -2.37156408805885   -0.32368673011074   -2.02102821670385
H           1.47373485357902    0.82296877485203   -0.59295338507666
O           0.93624166623326   -1.74416722870940    2.65283079004467
H           0.76213941470388   -0.78553308332449    2.69152356983536
H           0.22718375639822   -2.09597206200220    2.10041351788339
O          -2.89269936076860    1.02094430466829   -2.73925756065454
H          -2.48777937713794    1.11450943108420   -3.60403802398690
H          -2.47500440160247    1.70570244377520   -2.15813280384209
O          -1.43178198936226    2.39713666894436   -1.03388908945731
H          -1.76519675751767    1.94273915277351   -0.24612587821241
H          -0.67870395068470    1.83518711879653   -1.29639979301672
O           0.33225605643666    0.87016036833694    2.11314550521384
H          -0.40191272334658    0.59809189379143    1.49816339235173
H          -0.04372478130836    1.53074026904339    2.69764363626725
O           2.18471141624380    0.96044505863813    0.07199463579091
H           2.50334172043666   -0.56858667935591    0.26357016519342
H           1.70658298363840    1.17741353761720    0.89007902422061
N           2.32563668906310   -1.61284332698782    0.41791344672825
H           2.13650571227180   -1.77382562681048    1.43712667248338
H           3.04679068765951   -2.21293368786297    0.03626300093587
H           1.36505244260628   -1.78492729978768   -0.00827034206496
