    26
        -50.46487759  Gyration_radius:  2.37979869815 Dipole_moment: 4.239
 S          -1.34951601423658   -0.66330435041515    0.46368223428010
O          -0.17611962725868   -0.97000717107822   -0.36361999295211
O          -2.47360672798848   -0.21019485047528   -0.31143510653213
O          -0.89664184787017    0.50010528245852    1.42178484180087
O          -1.61887297561593   -1.78092312194579    1.36439025065396
H          -0.27895430961196   -2.21223568346413    1.61641615862842
H          -0.70938743871917    1.32387036303904    0.85065060356412
O           1.87546917384566    0.67741891364437   -0.43234623785365
H           1.13286225459118    0.02957056760035   -0.40348628169635
H           2.09899510962768    0.71749461903045   -1.36963823133038
O          -0.21068285320762    2.39945398980294   -0.11622913663662
H          -0.74964377264958    2.26182044682001   -0.92252637153962
H           0.67242592867444    2.02695943830341   -0.30812379338940
O           0.51426124059249    0.13496163335646   -2.85018975542810
H           0.20495804727620   -0.48714314460672   -2.17743084071988
H          -0.22260224784591    0.74595538698210   -2.96671091239449
O          -1.82521853327811    1.56634823580497   -2.10936626169963
H          -2.11536092572014    0.84265803558116   -1.50009181317215
H          -2.62322566944994    2.03443307877821   -2.36002303685623
O           1.68048916583177    0.00417308023898    2.24024191080190
H           2.08121140111116    0.35817574511455    1.43002325339305
H           0.78459641381808    0.38125252141420    2.25909488748777
N           0.81226900417915   -2.41059449034132    1.64902808094919
H           1.26931349026175   -1.49713108973287    1.96801379171406
H           1.07314320784749   -2.57904674066627    0.67847217736071
H           1.04983852562020   -3.19407069526835    2.24941957164310
