    26
        -50.45356481  Gyration_radius:  2.46830895489 Dipole_moment: 2.851
 S          -0.38990665744846    1.71154089045693   -0.24014958870111
O           0.90860906811282    1.06492037552403   -0.22780224683768
O          -0.75570766900676    2.27344388362586    1.02003512070188
O          -1.44045587018322    0.69806612554802   -0.72270517364550
O          -0.42942349388340    2.76606380752208   -1.33957867642526
H          -0.39649780209396    2.25240604592870   -2.21787861250432
H          -1.56133144299781   -0.09353004034680   -0.08073056775871
O          -1.55243588125956   -1.25209292528428    0.87877384922654
H          -0.92559420124756   -1.87304642903559    0.45388579947450
H          -1.12493294156468   -0.91389357733274    1.68554705042075
O          -0.22742875426319    1.36637208779933   -3.45734439152903
H           0.10902440916920    0.50010032550796   -3.11405780576545
H           0.46273204884380    1.71243134029908   -4.02847267330854
O           0.96618449507453   -0.65392134155719   -2.26554723838460
H           0.64176626989945   -1.46712960307268   -1.85591789479513
H           1.12470839109795   -0.04650992096614   -1.51935269718263
O           1.65950401677947   -0.92757119037783    1.42488923210867
H           1.05380240060463   -0.73596707921535    2.15465665002214
H           1.60597634078237   -0.14315433073316    0.85014068561095
O           0.49310689784880   -2.60655217432005   -0.24373445304666
H           1.06950936141249   -2.06341637166465    0.35260175965264
H           0.78925945549177   -3.51407870097187   -0.16522391249151
N          -0.45357361656993    0.23757572592671    3.02110737423432
H           0.24372806915815    0.48587058405821    3.71600572740747
H          -1.33389179702504    0.17659957010512    3.52319766389933
H          -0.53673109677449    1.04547290272184    2.39765501962053
