    26
        -50.44509278  Gyration_radius:  2.56942937076 Dipole_moment: 4.417
 S          -0.63595907917715   -0.44540743242980    0.89880763753884
O          -0.75979868824071    0.47398902751228   -0.21820191063210
O           0.17730873055743    0.04689341303664    1.96663841685344
O          -0.12988764061187   -1.78429049668551    0.39012911824215
O          -2.03049167130211   -0.76247239778502    1.43734384694270
H          -2.57016543174696   -1.15264603132523    0.67919912267795
H           0.88735291791648   -1.70953065895756    0.06492170098774
O          -3.45079346307749   -1.57084433967644   -0.52962338522607
H          -4.38523934910245   -1.59561346351804   -0.31089173015044
H          -3.32021426504219   -0.82866299980849   -1.16481780604002
O          -2.83812150608231    0.64793079359495   -1.85905108848596
H          -3.25380435585719    1.50351075030331   -1.73652588756012
H          -2.01648858149644    0.66545193715436   -1.32687070104538
O           2.20889187378636   -1.43816612913620   -0.34641692895264
H           2.08228620922819   -0.73841028694211   -1.02615474203854
H           2.62410102340276   -0.99545059921941    0.43095403007012
O           2.84017671871441   -0.16697775434275    1.90165611848604
H           3.13558228375577   -0.64255024560738    2.67987437060241
H           1.89235458386955    0.02983923025415    2.04055351481198
O           1.29490343931088    0.49737042418401   -1.93349713248858
H           0.52697557718998    0.61176591715727   -1.33940223460906
H           0.94207478661451    0.29549468076369   -2.80192863289641
N           1.67410565450942    2.54691933053919    0.55671529088479
H           2.44791769126094    2.16010491713323    1.08469305423114
H           1.81957662951711    2.28250265618296   -0.41079022520699
H           0.83735591205421    2.06924978765178    0.87268617297922
