    26
        -50.47216062  Gyration_radius:  2.41253350069 Dipole_moment: 6.327
 S           1.54811631878656    0.07716426371092   -0.80576972763114
O           0.22334439736538    0.10623624802927   -1.46960530771526
O           2.03499418377234   -1.28042738355409   -0.73503684077126
O           1.46833315897289    0.71958357626213    0.49567351267522
O           2.49898656133674    0.90843100931744   -1.70842711124587
H           2.18263401866599    1.82578936288814   -1.55231338979533
H           0.54853871984267    0.14392192762175    1.81849716339803
O           0.69495497651829   -2.71288404081971    0.96708266969846
H           1.27918339667171   -2.17732041407913    0.36742487050681
H           1.15560725946770   -3.54161838672061    1.10845703189176
O          -2.31004404815011    0.22991410273736    1.13184864353087
H          -1.91138861514171   -0.93676083685405    0.25235500925776
H          -2.07412293134701    1.02473068293460    0.61834440196393
O          -1.36535851724913    2.04295244314656   -0.74762075282199
H          -1.94580985471755    2.21006722147699   -1.49205545924654
H          -0.74152733665263    1.33104291101733   -1.03468946305366
O          -0.06341493217573   -0.35062996065294    2.39874003996940
H           0.17368100268221   -1.27602814154365    2.26520379189235
H          -1.58187258589060    0.12079366651345    1.79151032681863
O           1.30681462760660    3.04877089048090   -0.72193484582987
H           1.43269724121176    2.46682350376943    0.04716379290928
H           0.34601196695129    3.10080260237046   -0.82242488722873
N          -1.38465874298161   -1.63689077358621   -0.39637627577388
H          -2.00877990223496   -2.17709095965741   -0.98444223839885
H          -0.77183170372192   -2.24724856554944    0.17622801654783
H          -0.73508865958521   -1.02012496925903   -0.96783298154916
