    26
        -50.46931019  Gyration_radius:  2.42109327873 Dipole_moment: 6.615
 S           0.73468698226385    0.64150959656311    1.18799461721967
O          -0.71440725302274    0.64502886452376    0.92471128349397
O           1.35155672631235    1.87591739389620    0.78381329664722
O           1.34795084692978   -0.53664449497800    0.56984351821856
O           0.89917920417172    0.48033644827517    2.72742137345904
H           0.44956863149792   -0.37308859357507    2.89453112784308
H           0.53825440490139   -1.18602151469851   -0.53272311789058
O          -2.12328142871674   -1.44490623298352    0.55766235099708
H          -1.61981862126639   -0.59313942467150    0.70730798085895
H          -3.04896254905831   -1.19801553734140    0.52154660355381
O          -0.85470478371495    2.43546201562313   -1.03749658884063
H          -0.92042669945637    1.83552966432748   -0.26974109163375
H          -0.11432068424424    3.01034808230907   -0.82455015319817
O           0.11291469892443    0.64275950882468   -2.75652865004535
H           1.04842143938287    0.82824899167381   -2.51605298720409
H          -0.38769749574378    1.34696078349130   -2.28257272087668
O          -0.62571388514884   -1.70923441270687    2.94489563763630
H          -1.12825597269798   -1.81226924652662    2.11951050548387
H          -1.26578025894625   -1.53535407950232    3.63903822748357
O           2.44981386046379    1.04205886454886   -1.50252772366392
H           2.80972280363640    0.21860533556141   -1.16416003512408
H           2.12530355003261    1.50194921312854   -0.70255050176988
N          -0.11924047892779   -1.49203348738884   -1.32333837439021
H          -1.03820938308019   -1.64593452963942   -0.88267203812854
H           0.21910738700940   -2.33454894348758   -1.77439979603135
H          -0.12566105151326   -0.64352427526330   -2.00896273409854
