    26
        -50.46931022  Gyration_radius:  2.42112753935 Dipole_moment: 6.616
 S          -0.99958145934223    0.89841796472090    0.74585951138972
O          -0.85117130914007    2.26501739464129    0.32397064234348
O           0.26518604751920    0.34700492507371    1.26115132893205
O          -1.52821359188229    0.02665609284095   -0.30620991403634
O          -2.01273327997635    0.84619579781220    1.92634478238274
H          -2.03650857375299   -0.10989807363935    2.13557433657917
H          -0.51953504493768   -0.90541909725450   -0.94371466693469
O           0.86433951780557   -2.12846565271787    1.27646401289476
H           1.68181935821156   -2.25130794193582    1.76202949611331
H           0.67481612522906   -1.14634822380113    1.30630211434822
O           2.02559351890488    1.90673455432124    0.01844263099381
H           1.46337654772158    1.34392459895196    0.58484147397739
H           1.52678133228155    2.72355699671918   -0.07111484631922
O          -0.73844006626888    1.85809219283229   -2.31229593288172
H          -1.47175557916091    1.24051652072606   -2.36560823761920
H          -0.76877290584377    2.17839695175701   -1.38858736261427
O          -1.67274480190914   -1.75205032666374    2.47378126457303
H          -0.87147556366764   -2.05623194950683    2.01568392277542
H          -1.49569400781339   -1.81834135509675    3.41505119662852
O           1.61615571422384    0.57535008352264   -2.25433434993717
H           0.82350160260854    1.10670980851906   -2.49260433777300
H           1.97931016939352    1.04805895239598   -1.46962150230790
N           0.31599280929604   -1.45539887316045   -1.33172890143166
H           0.97181718078970   -0.68830897694866   -1.74576988881203
H           0.02037502370867   -2.11695259263185   -2.04075101407902
H           0.73756125599872   -1.93590977147601   -0.52315575918434
