    26
        -50.45643863  Gyration_radius:  2.41267627708 Dipole_moment: 8.009
 S           0.19521880361002    0.47804609020214    1.65390197068370
O          -0.90836230929333   -0.47658446524848    1.57566461687444
O          -0.08631850217475    1.62025562755491    2.47259494454684
O           0.44563389048850    0.99238728804112    0.17386303165517
O           1.45248067626447   -0.21461516104838    1.96843679548084
H           2.34580651712174   -0.07890494011571    0.88610044400760
H          -0.18892240461258    1.77454746863422    0.09387653396801
O          -0.27778463429932   -2.31293044439908   -0.08346350455909
H          -0.19367912356340   -3.12840663360075    0.41232683588554
H          -0.49948032209396   -1.60877162779114    0.59283565572987
O          -1.68017839104998   -0.80777227553515   -1.97410496818208
H          -1.32438954334959   -1.43976798120536   -1.32859001127037
H          -2.32759250749775   -1.28167257341229   -2.49827542272064
O           1.32721695018981   -1.01173708795220   -1.80102941520751
H           0.84214027434340   -1.62655242916752   -1.21174851983685
H           0.66563390122262   -0.35113085821792   -2.03764819417996
O          -1.27501640931958    2.84677829695440    0.39314461189060
H          -2.05043172301002    2.25335195420156    0.25393657685058
H          -1.06693092841715    2.78826804554457    1.33998651322757
O          -2.82280558532429    0.71305638966426    0.10025510426627
H          -2.53171526128700    0.34142641235575   -0.74761518373569
H          -2.29283202692092    0.24182049027362    0.76929302913590
N           2.96014739115042    0.04537316105265   -0.03584906098342
H           3.08846752640739    1.04008415971870   -0.19208228016070
H           2.35197798691172   -0.36378239191991   -0.81891871088946
H           3.85171576457648   -0.43276651452501    0.04310861750542
