    26
        -50.46307639  Gyration_radius:  2.38382312318 Dipole_moment: 7.334
 S          -0.20370938144914   -0.86575784080393   -0.42378830162916
O          -1.17943502561579   -0.46719955921305   -1.40995636413851
O          -0.72108439322494   -1.78553656202784    0.57643936188830
O           0.26369592619305    0.37320857137724    0.40237134022232
O           1.03625714671162   -1.37446041250525   -1.03972701947004
H           1.99436399938601   -1.25639774556758    0.00800199484172
H           0.25486705296055    1.26144192867986   -0.14209845780021
O           0.70583130608468   -1.24308088982456    2.67840070647130
H           0.09159762960191   -1.59398708319692    1.98576734156858
H           0.34338878139678   -0.37963783303510    2.89819592970241
O          -2.40223935952970    1.84520781272750   -0.68557796691866
H          -2.18952805255164    1.02402512557171   -1.15878272882435
H          -2.52065776036881    1.55113903781807    0.23090156585419
O           0.16442079657142    2.45603026161037   -0.98641099520994
H          -0.82032945316872    2.51628110897574   -0.94244611583904
H           0.37389673782080    2.07287839820199   -1.86244957377059
O          -2.53962744095020    0.02114864152844    1.44063359091731
H          -1.90931249251482   -0.65039892891234    1.12742260475208
H          -3.40858746611786   -0.37920903055878    1.36732131867137
O           0.59858413329952    0.70464565190006   -3.00237161431649
H           1.31554991893298    0.07359797745332   -2.90331644121416
H          -0.17806905311231    0.24360042588928   -2.63493578084974
N           2.62528583700380   -1.08063137854375    0.90773158088616
H           3.34520986518710   -1.79126224406816    0.99523133708386
H           1.92728375002170   -1.12367116896598    1.72710256468496
H           3.03234699742682   -0.15197426450012    0.84634011243121
