    26
        -50.46183595  Gyration_radius:  2.72037181914 Dipole_moment: 5.995
 S          -0.51068321369211    0.29436153459737    0.07833980349852
O          -1.12593095949469   -1.01708434304928    0.65273009168084
O          -1.09176583560877    1.43623389771268    0.73528438955031
O           0.94293463752540    0.18160476354834    0.31302711935326
O          -0.79547893813702    0.20388090690049   -1.35170726790131
O           0.79261357356009    1.16441411143209   -3.23339237672273
H           0.21196519917235    1.47456820930027   -3.93026518418165
H           0.20323492843214    0.90505438911185   -2.48956479204131
O          -2.85336715419323    1.21982055820176    2.72908003144026
H          -2.24378651905177    1.42355041826370    1.99017797916685
H          -3.71675489959992    1.09369545091602    2.33322581122065
O           2.43886980614769   -0.90385276119722   -3.37537870205984
H           1.86083712368711   -0.10524450844258   -3.45682815363033
H           3.31030789528523   -0.57077770554013   -3.15302399259378
O           0.85374831532228    1.06146177456030    2.84053127959913
H           0.30904006044656    1.84614567265450    2.73144566612809
H           1.06074566927141    0.77319985672976    1.93233542156741
O          -1.07622960127986   -0.76216253687447    3.16971630866801
H          -0.27892372168125   -0.19225760559032    3.25981118813258
H          -1.82982625836044   -0.14603452925473    3.26722141526676
H          -1.11735901256238   -0.98695815618192    1.68184613941478
N           0.94696102297473   -1.73265663800792   -1.35361040559219
H           1.19548200131361   -1.05687615602048   -0.55335295346438
H           0.02040417967361   -1.32535949265647   -1.60372948980195
H           1.61357048943277   -1.58025248261395   -2.16288471494009
H           0.87939121149318   -2.69847461853639   -1.05103459173913
