    26
        -50.45424234  Gyration_radius:  2.49841609998 Dipole_moment: 3.404
 S           1.10611008659613   -0.93524779204200   -0.14547870575847
O           1.35139698723754   -0.26135746325168   -1.39338087535893
O          -0.29570901516179   -1.13408966329736    0.14454775612257
O           1.74976604465890   -0.19425029970416    1.01722698901230
O           1.82926517167058   -2.28322884774964   -0.14694181919219
H           1.51760183711007   -2.70711159298066    0.73635489906563
H           1.28689052827337    0.76724918611302    1.22639411210998
O          -1.86679417578897    0.66681622523808   -1.04380784214765
H          -1.81975808282180    0.40627621928533   -1.97822399183619
H          -1.39519958912898   -0.05672555625287   -0.58418307865659
O          -0.60998344497416   -0.19932454778981   -3.31644668444471
H          -0.24622823646919    0.29802796942386   -4.05123230114909
H           0.12658343492545   -0.34650549962210   -2.69816226367992
O           0.64637594429769    1.98645449430083    1.37722420698794
H          -0.29716000514465    1.83937214287611    1.61764308880271
H           0.61449111096223    2.30489797377961    0.43391774104387
O          -2.02872085859955    1.77006201713706    1.50692754648414
H          -2.17358970711367    1.35277838735930    0.64334736874939
H          -2.45246717029330    2.62979278182567    1.46754209912886
O           0.32426364875857    2.28194312478534   -1.19737576497452
H           0.90664271608324    1.55319374397104   -1.45807490067103
H          -0.57456937837928    1.89393466425462   -1.22282416513289
N           0.74049987958825   -2.93287386340687    2.07058239173315
H          -0.07136439927323   -2.39787049235077    1.77577099586165
H           1.18307258905958   -2.45068255615433    2.84167229006877
H           0.44858409388815   -3.85153074576707    2.37698090784021
