    26
        -50.45274151  Gyration_radius:  2.48249339312 Dipole_moment: 7.384
 S           1.49487974789029   -0.39705476006737    1.07011661085489
O           0.83405104766376   -0.78773726638161   -0.15929963886395
O           1.39938251526462   -1.35239719165539    2.12229130011032
O           0.90394517492183    0.97188585624712    1.51675559720213
O           2.92699687394310   -0.00701262115798    0.76267680489408
H           2.81326603742201    0.76403739657542    0.02309991141402
H          -0.10960448287779    0.96574062223250    1.51575552071523
O          -1.36851594058824   -1.65828611351177    1.90017462699577
H          -1.47059444671305   -2.11740212595764    1.03051514516149
H          -0.43324563660176   -1.75009301194134    2.13683323673475
O          -1.28684569269951   -2.49600711208643   -0.61988898137840
H          -0.40409775684096   -2.09934906837016   -0.62226905171066
H          -1.82804382884041   -1.91709965206362   -1.18623487209311
O          -0.47611060281120    1.22415729923438   -1.20717181172255
H          -1.06439321258091    1.45632731077832   -0.47869334906384
H          -0.01286257380963    0.41527104763806   -0.89843088565207
O          -1.63751241305524    0.83752732405504    1.42183043999926
H          -2.09261720402740    1.23028659658699    2.16931321930754
H          -1.65653412652764   -0.16577605551892    1.58244090564289
O          -2.29050749794544   -0.54833603334937   -2.32721883135439
H          -2.09576605277295   -0.73247455190367   -3.24699523426581
H          -1.69789293785796    0.17570745005369   -2.05324116879792
N           2.45935738656923    1.81088130547720   -0.94647520209028
H           2.94849868104435    1.68634510240071   -1.82330662679529
H           2.69018379159828    2.71820443262243   -0.56308225992417
H           1.45458314024406    1.77265383004991   -1.11949542533277
