    26
        -50.46357731  Gyration_radius:  2.48394849453 Dipole_moment: 7.135
 S          -0.53962246103150    0.68948440358132    1.44957539500743
O           0.57752657030228    0.85320513165946    2.33458202075208
O          -0.86886263696942   -0.73867348331182    1.23512633254241
O          -0.34611324076088    1.32432583748083    0.14344390714370
O          -1.79189322415970    1.34347111851831    2.09352464644304
H          -2.43683704238444    1.37402199431951    1.34961867691072
H           0.19208596846725    0.45363140695449   -0.93092440589644
O           2.74978826805990    0.11910345142168    0.95363936910017
H           2.44442116000467   -0.78307492370559    0.78490656963310
H           2.06094429694975    0.51068604608051    1.52805374685795
O          -3.45846101309260    1.09644012111154    0.05901666851866
H          -2.96827894753544    0.47152200909883   -0.51342482524202
H          -4.25011338287139    0.64325665210210    0.35776738012174
O          -2.06871188300047   -0.97350002953939   -1.04777327745440
H          -2.54873457465505   -1.80313095123753   -1.02065006099409
H          -1.59133213119307   -0.90862667409728   -0.17990394701678
O           1.13061404281381   -2.09225707925074    0.29969947411258
H           0.38486013322141   -1.62202332650550    0.75718119513226
H           1.18422568255269   -2.96319269150933    0.69484644383184
O           2.94850241391814    1.21583515936790   -1.43341093884186
H           3.03435897281473    0.84318008286615   -0.51649335893549
H           2.73118762537976    2.14174043932019   -1.30860981417500
N           0.72321949547852   -0.16977601512219   -1.64105706853087
H           1.63808442455716    0.33894951741246   -1.79872316936670
H           0.16235656959529   -0.29643354505949   -2.47613790333718
H           0.90678490351783   -1.06816467205146   -1.17387306632436
