    26
        -50.46837087  Gyration_radius:  2.48001793244 Dipole_moment: 2.826
 S           1.56594302410671    0.33117354431762   -1.58092729446141
O           1.61303349413003    0.88109416793362   -0.22512976256266
O           0.76969298326417    1.12599004461753   -2.49294569841163
O           1.20464622684857   -1.06759572701301   -1.57164364358407
O           3.06169196223939    0.43321723365919   -2.10752298347398
H           2.93248248576678    0.36485576890307   -3.04716354631618
H           0.46695129502407   -2.30607062685102   -0.60589075382732
O           0.04120400790806   -2.67881423578372    0.19146722853045
H          -0.87338060260197   -2.31220013833724    0.17629255403728
H           0.66758521237279   -1.70951318303244    1.15071495596275
O          -1.18279424961718    0.54189173712852    2.42311517969061
H          -0.99241568222889    1.24974183807494    1.73756089924670
H          -1.54851687341345    0.99302736466738    3.18413018347995
O          -0.59147582628399    2.22399074995376    0.53482744949817
H          -1.16672883402546    1.96827668986131   -0.20384808478125
H           0.29614183131720    1.92170935688920    0.26182622115789
O          -1.64398822149413    0.84870617302769   -1.59807589681655
H          -0.73320257054598    0.92071476222543   -1.98030607418512
H          -2.24920546732706    0.92257802479038   -2.33796972180857
O          -2.11925453403134   -1.11910326658860    0.29573252568650
H          -1.99081136993041   -0.61537089643390    1.11084519774542
H          -1.99023737148982   -0.48411136198094   -0.42934496236044
N           1.04388119369038   -0.83174505658887    1.68354063566403
H           1.79540123797845   -1.06204330037046    2.32285788855260
H           0.24832073218534   -0.37944184985838    2.17346122705974
H           1.37503592617335   -0.16095781322288    0.93439627628220
