    26
        -50.46183568  Gyration_radius:  2.71993897942 Dipole_moment: 5.998
 S          -0.53673790180932   -0.23705977794217    0.09675572529512
O          -0.73080838119047   -0.33192624373421   -1.44643621588910
O           0.07731000878889   -1.51757737862683    0.44015803011820
O           0.43007019558287    0.85966263294211    0.30426428785160
O          -1.80313149907676    0.01171509342795    0.73508815330690
O          -4.06417892291430    0.38511576269281   -0.63345978132929
H          -3.31041264534785    0.23232391117416   -0.02719798697790
H          -4.41653067299649   -0.48116611099730   -0.84180743227584
O           1.83007945265012   -1.83500523110466    2.39282755046750
H           1.11256231297201   -1.67253156319684    1.73966082208756
H           1.66061282167348   -2.70607534977083    2.75550961289847
O           3.98146917701570   -1.10102447154319    1.03632244302514
H           4.33932697478295   -0.33645774194987    1.49151432288744
H           3.26651028686922   -1.45073324781962    1.62385708628575
O          -1.38991468996249    2.82003844535596    0.18732259564244
H          -2.05992162209298    2.46916744936207    0.78090349559260
H          -0.62175164116730    2.23054124310795    0.30213412498370
O          -2.17260655393300    1.64658988604579   -2.08586746140754
H          -1.89246084459984    2.28454938279590   -1.39068819025110
H          -1.29669460321806    0.46205122372987   -1.77756358544836
H          -3.03352872029622    1.30468110191802   -1.77135057844405
N           2.16547011787800   -0.60964743454620   -0.82359639093134
H           2.36861825167758   -0.52757430232359   -1.81398251394528
H           1.45902663452864   -1.34888956400068   -0.61889976787292
H           3.01993522656807   -0.78173997464310   -0.22106190712330
H           1.61768723759191    0.23097224965632   -0.43440645855485
