    26
        -50.46670435  Gyration_radius:  2.38955592958 Dipole_moment: 7.726
 S          -0.88341567557055    0.89233132504006    0.96938766175950
O          -1.91432975197660    1.52454462616241    0.20617660588163
O           0.45650022579263    1.41568698617620    0.68257982380673
O          -0.88677576655246   -0.57033076939141    0.86365419782926
O          -1.14008771496564    1.21059505109253    2.49182895007890
H          -0.40287172193457    0.79640293395465    2.95056492844070
H          -0.01034154303580   -1.63717499410493   -0.27314474660189
O           0.73193761551203   -1.88085448295725   -0.85560924591811
H           0.52174219020522   -1.40140874613879   -1.71097885301927
H           1.75924723544225   -1.11634358035549   -0.13986416926538
O          -2.52118911079227   -0.41609627857194   -1.57077035495567
H          -2.57161243025608   -1.17187727469718   -0.98200700464488
H          -2.41781892193915    0.35598735609618   -0.98612172414257
O          -0.08936400235182   -0.39334072549839   -2.81383351728359
H          -1.04017574207590   -0.47403062656583   -2.60701856559289
H           0.11457769835146    0.54471588267139   -2.63333291785632
O           0.78126612186585   -0.88374146791336    2.81473502829246
H           0.50658292658662   -1.56763005399878    3.42861970209755
H           0.13091243411743   -0.89967461273154    2.07245682855798
O           0.04009065298680    2.16091057664852   -1.87383911642777
H          -0.88288074452494    2.42803014089726   -1.86975233782869
H           0.26199377866910    2.01842655116272   -0.93895170824194
N           2.29171797946781   -0.41142536612098    0.52893489332477
H           2.29507068550563   -0.78862326973591    1.48030323660723
H           1.64777207466870    0.43450572287147    0.56046122933327
H           3.22145151682936   -0.16958490402154    0.20552116579656
