    26
        -50.44748645  Gyration_radius:  2.48591239119 Dipole_moment: 5.249
 S           0.79291709758749    0.49442817408760    0.52191235841025
O           1.62296012802693    1.47237546181640   -0.09889290371978
O           1.02982380498208   -0.85970324227836    0.06616691274928
O          -0.69035059518108    0.81454579990049    0.34215783191618
O           0.98664477074233    0.54262945257764    2.04903059262316
H           0.26598049870318   -0.03898600796843    2.42740461369575
H          -1.23326013630265    0.13849195335324   -0.30072864671720
O          -0.75389649560327   -2.66177615528765    0.57542577239217
H          -0.41496488366730   -3.55821840853547    0.59634659115631
H           0.00939701988609   -2.07218746021470    0.35207990800408
O          -1.88712584511312   -0.79747042618734   -1.09371597584869
H          -1.69627797946445   -1.64711074675933   -0.66162637178894
H          -1.36821655020731   -0.78433285428874   -1.94428016451353
O          -0.37136355711590   -0.63651627403314   -3.21770732843955
H          -0.63704739027427    0.00034255921741   -3.88323393031440
H           0.54199306756707   -0.38164517594613   -2.94366405676220
O          -1.05461592292324   -0.92606274398249    2.64547163995319
H          -1.79348110800527   -0.35972462790995    2.40658200624203
H          -1.05720755576086   -1.67111789735300    2.01157104032954
O           2.05221261905461    0.10083133452447   -2.38312265475502
H           1.97704792861411    0.76403636761034   -1.67538476831558
H           2.38039404875262   -0.68880598789846   -1.94516548757003
N           0.19932860844626    3.43741955082858    1.62108009212431
H          -0.45672369191606    2.80176371777011    1.18369809509836
H           0.61218507867893    2.93898801967116    2.40092013937494
H           0.94364705026638    3.57780563713296    0.94767468470032
