    26
        -50.44748627  Gyration_radius:  2.48599029408 Dipole_moment: 5.235
 S           0.81798263730579    0.40923799973364    0.55617659170751
O          -0.44465035898481    1.11734540648816    0.60088053848746
O           1.87429689410635    1.13932097030429   -0.06182806475497
O           0.59270490924076   -0.94227207617092   -0.12013489033270
O           1.22183637972195    0.02788603755128    1.99250475943216
H           0.52185742608935   -0.61477684959158    2.30550249794505
H          -0.33708101935923   -1.03852216694491   -0.66021487516917
O          -0.68883101503359   -1.66538358359572    2.39315686759275
H          -0.45541570576198   -2.38620318240221    1.80188202701641
H          -1.50148869492727   -1.25853780488449    2.03099159712704
O          -1.57167614916977   -1.11765008723992   -1.29343080562507
H          -2.20997154748448   -0.88845253763625   -0.59700775460386
H          -1.55404171112782   -0.35210823533348   -1.93105724397437
O          -1.33451503003590    0.96036536191273   -2.86184226995362
H          -0.96002719178094    0.79770330646687   -3.72927099933533
H          -0.74598939189785    1.62454435516867   -2.42958036938290
O          -2.59627781323645   -0.22900609766762    1.09574266479097
H          -1.84398403945558    0.39360270922422    0.93240281509350
H          -3.30795860622349    0.28940093568403    1.47474040907650
O           0.30430185053650    2.67000444070474   -1.63485661574864
H          -0.23341540590471    3.00853447383305   -0.91424009584852
H           1.02903269615688    2.18902524181076   -1.19898180154444
N           3.55795137386054   -1.23965807108710    0.53229980547418
H           3.81472276884026   -0.36941440579661    0.08060817860642
H           3.38214714985903   -1.01394345495818    1.50447297166542
H           2.66848959472686   -1.51104267553253    0.13108407222218
