    26
        -50.46836582  Gyration_radius:  2.54999411335 Dipole_moment: 5.026
 S          -0.28522987804871   -0.35076030206277    0.36771362944984
O          -0.88933727663266    0.90771866067016   -0.33664249160765
O          -0.74115133234407   -1.47504146003009   -0.42727881952977
O           1.18235834647060   -0.20578464798897    0.26133592599955
O          -0.72267293256604   -0.36714651072872    1.74159434225183
O          -0.83353876931540   -0.08203377373106   -2.84115618508860
H          -0.95954530907159    0.44646268508017   -2.03176806505937
H          -1.30363795449760   -0.90243642246825   -2.65790972859090
O           0.80144760476577   -3.30767110844579   -1.50894339517172
H           0.11850893519873   -2.74208696739430   -1.07672689074763
H           1.15202879450470   -3.87131634305725   -0.81780491537181
O          -2.24898639094221    1.53062643005038    2.80068642397425
H          -3.16221124811813    1.33313984250165    2.58934137461790
H          -1.72655272584102    0.75450325600122    2.50606377744039
O           1.42575274133670    1.35992350941434    2.40244747113566
H           0.87635880514005    0.88187453605012    3.03069041559255
H           1.49836680766376    0.76375188569346    1.63348104812870
O          -0.47584511124464    2.81204081677534    1.24021929794933
H          -0.71739603013999    1.73696177839579    0.26695589217664
H          -1.20037368246993    2.63514340250893    1.87454460640073
H           0.33815726513299    2.49475478750442    1.69849790720379
N           1.60972544514190   -0.86400692496994   -2.17370497710839
H           0.72624006114529   -0.50676913330117   -2.63254908509591
H           2.45232540504535   -0.55157119151783   -2.64309099637904
H           1.55083150930605   -0.52540570970604   -1.15003368468351
H           1.53437691037892   -1.90487112523974   -2.11596287788213
