    26
        -50.46047115  Gyration_radius:  2.50404977306 Dipole_moment: 7.622
 S           0.17428299234523   -0.93627131939056   -0.73041334453722
O          -0.24311473827680   -0.32268903408918   -1.96122476436628
O          -0.64128498617203   -0.51553640330683    0.41907702874145
O           1.63859050547908   -0.46918810049678   -0.40311646308760
O           0.28189851091819   -2.39490206684279   -0.76875045788739
H           1.21837745211304   -2.70408102265276    0.25249181259619
H           1.69516265078604    0.47804236058918   -0.77893132819773
O           0.89980031913062   -0.81657665163483    2.49035514086259
H           1.34789961035380    0.03216843118376    2.53032831945685
H           0.19452529574359   -0.70182316401965    1.80469974424472
O          -2.77853384280052    0.16077765564966   -1.16418906161214
H          -2.38379618705821   -0.16270901601003   -0.34290715808515
H          -2.07344499996230    0.01561256814462   -1.81403433945314
O           1.38881780502022    1.84790127899406   -1.37431117877060
H           0.77777043435113    1.52540627165948   -2.04903859631617
H           0.81525387392632    2.18812846329406   -0.63679125709333
O          -2.61333713293243    2.80671540115140   -0.69967958151477
H          -2.76321097675765    1.87094885093095   -0.96481707522201
H          -3.42273508491634    3.09905552868323   -0.27896857439769
O          -0.31707236763617    2.17751083495434    0.59285782546690
H          -0.51044204751143    1.22435653957818    0.62391102078859
H          -1.11002517062863    2.58153761691928    0.18574796910963
N           1.95727039890042   -2.76607888566502    1.08423982540988
H           1.63501115451635   -2.00881223570554    1.76568277791896
H           2.86798513378501   -2.52304311399562    0.70515624080906
H           1.96435139736848   -3.68645079794178    1.51262546508795
