    26
        -50.46047119  Gyration_radius:  2.50402687905 Dipole_moment: 7.622
 S          -0.67435116870110   -0.88186467781352    0.45616876828513
O          -1.92536316280968   -0.17721775319799    0.52101111578137
O           0.47608707069140   -0.02867027140145    0.79084774453646
O          -0.43484792135818   -1.35276364237831   -1.02379708288028
O          -0.62209972200451   -2.12680658377020    1.22304781768299
H           0.38022249627640   -2.89559340184922    0.57519505968561
H          -0.87343895718349   -0.63070275508741   -1.59643204041640
O          -0.77842090197700    3.78338184489776    0.52440680411194
H          -0.34668826021006    4.50739438978579    0.97930182497600
H          -0.97640570797043    3.10602938456167    1.21025341132286
O           2.50142283348238   -1.11377679787167   -0.42423145843886
H           1.83758111495489   -0.62791629375138    0.12707463592621
H           2.46871105302261   -0.68824360812571   -1.28482625972152
O           0.46184815539572    1.96585193811277   -1.05587501512987
H           0.56226308543512    1.30889557358375   -0.34512766595708
H           0.06049954915471    2.74582890239594   -0.62189582655798
O          -1.06392359284470    1.72498033758713    2.23479104816038
H          -0.23936461048101    1.25614248841205    2.04727036999747
H          -1.72973152110393    1.17450981499358    1.79416136580460
O          -1.54448482176122    0.63972161228749   -2.10695587984956
H          -2.17263223727735    0.71686614714155   -1.37747143544151
H          -0.80894777944063    1.27356435784006   -1.89276874400567
N           1.18530427531848   -3.35418446459264   -0.04383474106137
H           0.75667487286568   -3.70371616727174   -0.89605949508948
H           1.67221963881541   -4.08991081748305    0.45847372836493
H           1.82786619970514   -2.53179955701022   -0.27272804008545
