    26
        -50.46843465  Gyration_radius:  2.53760328546 Dipole_moment: 4.843
 S           0.35195413866017   -0.66258215680196   -0.53686635841722
O           0.54258725645417   -0.68509395619545   -2.05596499909043
O          -0.87387154414093   -1.38061380118220   -0.19059821831000
O           1.51657426798443   -1.26785387749844    0.07498476580530
O           0.23602073653428    0.75534565657795   -0.12726502422096
O          -3.10282018053232   -0.31965422322092   -1.09996088765374
H          -2.31043721203844   -0.71177824172373   -0.67012784194625
H          -3.68022809068054   -1.05556504915523   -1.31029023230702
O           3.09092564618859   -0.12562358090142    1.83861461321992
H           3.76800398669876    0.36954822964542    1.37558944762836
H           2.61190730401233   -0.64103163995954    1.14566214002117
O          -0.21391826705862   -2.00229971918598    2.25368405962427
H          -0.59209960803566   -1.87505987441138    1.35077488711284
H           0.60127359675540   -2.48922172160107    2.10185637944941
O          -0.27288302199965    2.69915216099883   -1.88649063557472
H          -0.10260757043170    2.06130996381701   -1.16345843695540
H           0.57534917573263    2.86837247227204   -2.29986227280224
O          -1.44432423728701    0.54907887747214   -3.01111789538422
H          -0.27029818996148   -0.22656106481545   -2.49537076270038
H          -2.18171270472135    0.30914409088513   -2.40690291869209
H          -1.18941420544299    1.46168085448313   -2.76262795828858
N           0.57809182797205    0.50197289905101    2.41245436430472
H           0.19010614076288    1.16588959929971    3.07328858880191
H           0.19710426973629   -0.48341769013175    2.54200243152935
H           0.35406791750933    0.74759044449723    1.39385416476178
H           1.62064860731417    0.43727135780421    2.45413857007617
