    26
        -50.46154480  Gyration_radius:  2.43341851506 Dipole_moment: 1.385
 S          -0.99548868443238    1.87664169131452   -0.26071656759077
O           0.44195412737619    1.69228817447590   -0.33957459326011
O          -1.52020123485303    1.75424221346871    1.08304804690213
O          -1.70049858542581    1.00945710708200   -1.20107793904220
O          -1.26892393894177    3.36331524126434   -0.71923612828618
H          -2.15692754238189    3.52750419810802   -0.41871151320894
H          -0.95016437548481   -0.23460140720550   -1.66169119945812
O           0.71366682612489    0.20103839817294    1.81583024155125
H           0.04385520996472    0.55827032383691    2.40613581306878
H           0.71765823523084    0.82063587558959    1.05604723864343
O          -2.80750283387918   -0.56539480742823    0.86573895335148
H          -3.15301758640961   -0.46186164473142   -0.02491905421716
H          -2.41087937816619    0.30324082879808    1.07958055597752
O          -0.37194200765377   -1.06839874014300   -1.76887738277117
H          -0.40365992495720   -1.51719780613399   -0.81565789843872
H           0.63798901915796   -0.68997966372077   -1.87812834889908
O          -0.51400726922478   -1.86947203366861    0.60805044558148
H          -1.44278949111560   -1.59721918765974    0.80002839717141
H           0.03301983743204   -1.22572139839203    1.11040731378398
O           1.88875218233015   -0.05153680775173   -1.76115540300071
H           2.34027934054657   -0.55617473359901   -1.02362707064448
H           1.57077139666083    0.77556241347695   -1.35239601485834
N           2.78214920866904   -1.39278254623526    0.35945685078997
H           2.37605339252087   -0.85324093347684    1.11730351636881
H           3.77529634175255   -1.47935640556918    0.53147683791739
H           2.37455772515759   -2.31925833988138    0.39266489257170
