    26
        -50.47304509  Gyration_radius:  2.41239972817 Dipole_moment: 4.425
 S           1.17450038858222   -0.77864589046169   -0.08678061415163
O           1.40622260296986   -1.28115550295160   -1.43238816898337
O          -0.24766946189686   -0.89950162600554    0.27033272640716
O           1.61428353700067    0.60474646854230    0.06119647737013
O           1.97639060075599   -1.66950393180783    0.88161285641371
H           1.65481741865117   -1.42962669312414    1.79994097575428
H           0.42898471303199   -0.57635250909013   -2.37607057434634
O          -1.65614420669672    1.22190244142746    0.88224552885208
H          -1.14054898925230    0.39582780366978    0.71715088997169
H          -2.56820106974692    0.94854465866504    0.98860230832921
O          -0.16531703074444    2.05366055341253   -1.25917717942984
H          -0.85154706156773    2.02582080180027   -0.56907632424098
H           0.62912736807117    1.68663067898380   -0.81294453080875
O          -2.10652348837982   -1.59015201108319   -1.44692636374123
H          -1.46497554184032   -1.39448450661481   -0.72162316841782
H          -2.09888277673824   -2.54297781888590   -1.54921419012552
O           0.71074103862057    1.54193215593630    2.37435111656446
H           1.16667094785141    1.33853654094671    1.53134186663732
H          -0.21401620835565    1.67646346122991    2.12587413775659
O           1.20254627914931   -0.88654301340065    3.21394774153659
H           1.96422795023662   -0.83318916624961    3.79525883343111
H           0.94476039713624    0.05438528737708    3.01130367330376
N          -0.39894204895578   -0.04230918013748   -2.79666770614307
H          -0.39609242303484    0.90295083441503   -2.28958289408622
H          -1.24319594635953   -0.58661130000609   -2.51039469450626
H          -0.32121699851186    0.05965147342085   -3.80231272334938
