    26
        -50.46657230  Gyration_radius:  2.39514755882 Dipole_moment: 4.970
 S          -0.32062156571028   -0.69258140148460   -1.26745969900137
O           0.29670233543116    0.54305648299864   -0.75796158642673
O          -1.13067692142340   -0.44662863129304   -2.43212169038737
O          -1.31069713482720   -1.15288977361037   -0.09110310311850
O           0.63234046200544   -1.76800181226912   -1.36358668959304
H           1.91729495880561   -1.95731585006246   -0.29745928364187
H          -1.88000818589917   -0.36202994219898    0.08963560198166
O           2.51527617573349   -1.76457242950758    0.46261017902578
H           1.43077864891085   -1.45414799804814    1.43229868448005
H           2.92540374953889   -0.90825982542996    0.21165508804212
O          -2.67104525155919    1.02090132949950    0.41327827531282
H          -3.62193860199046    0.91593535452802    0.34691838781820
H          -2.39160779108118    1.50631231126283   -0.42063744763239
O          -1.82278157303827    1.98270846546402   -1.83483983054427
H          -1.62881733978974    1.08971436156728   -2.21431483322986
H          -0.95706564492396    2.37291503393692   -1.68708640179481
O          -0.15046307037424    1.30668310153850    1.72583162966419
H          -1.10774812948251    1.41953812410240    1.69156558439508
H           0.11332513957029    1.20634784283222    0.78470368007785
O           2.95175774269115    0.62801086090213   -0.62551991177115
H           1.97506824579628    0.67713242490197   -0.70249993003488
H           3.28809533618423    0.58480784463424   -1.52188856011197
N           0.47409722725710   -1.25096677536710    1.93407121305006
H          -0.25592371982987   -1.51407800881047    1.24663552881189
H           0.34395728032773   -0.21024105145673    2.07776899539600
H           0.38529760767175   -1.77235003861820    2.79950610925817
