    26
        -50.45695820  Gyration_radius:  2.43947363894 Dipole_moment: 1.627
 S           1.02209975415955    0.90784103639959    0.28058131495713
O           1.33104928326382    1.72971219977287   -0.85200916316615
O           1.47030095229854   -0.46361636189860    0.16434609230207
O          -0.50351789787205    0.90667457067268    0.51071651630586
O           1.55791439702959    1.52112445169749    1.55717312992676
H           1.50477911236255    0.75043651662375    2.26353119958510
H          -0.99471148875675    0.58299705938413   -0.35872316345458
O          -1.23012924318464   -0.83899724471130    2.66421588855885
H          -1.21178109466550   -1.49047275735323    1.91884677130217
H          -1.44858542649672    0.00086851917716    2.24920124632052
O          -1.49884149046370    0.19118032227152   -1.67029650044936
H          -0.73423354310449   -0.28639059329494   -2.07398403632022
H          -1.49016343777749    1.06671158334801   -2.10885591563335
O          -0.65228758194089    2.59957140738347   -2.45775020569963
H           0.15165919468001    2.39321309009112   -1.94413568469999
H          -0.90740451755001    3.49076684755452   -2.21512861866900
O           1.33613724103930   -0.51290301317353    2.97954649143232
H           0.34502637564643   -0.66484086241469    3.01861915764495
H           1.66828415253964   -1.12368067837266    2.31260579581750
O           0.87798769231350   -0.70864597848670   -2.43946807906012
H           1.25882282119888   -0.74695850523186   -1.54427331664592
H           1.29765572669495    0.04145659158090   -2.86828278780148
N          -0.87424911787471   -2.26867670538914    0.40537788825022
H          -0.79242742147753   -3.27313899623323    0.31293031447900
H           0.03371022147675   -1.85972892883329    0.20253977498422
H          -1.51709467379473   -1.94450355045326   -0.30732413052002
