    26
        -50.47411094  Gyration_radius:  2.41823230264 Dipole_moment: 2.958
 S          -0.24939565314499    0.55229664150442    1.54912797353121
O           0.71727957966269    1.60462643657270    1.70568199735062
O           0.38397299934106   -0.71392557514850    1.13000720972419
O          -1.31027055662700    0.90193263025620    0.59502209737660
O          -0.92265487895352    0.27820881387851    2.91765365922038
H          -1.49519270385095   -0.50391601348084    2.74541408733230
H          -0.73634375364991    1.49169915033792   -0.73317665438671
O           0.17098102478633   -0.78452337751717   -2.47091617711569
H          -0.47921058897641   -1.26613055130562   -1.92563723415812
H           1.02537958280092   -0.89563576394379   -2.01936391543992
O           2.13237327533107    2.09235308462424   -0.48160968949086
H           1.74174597332146    2.06782577979241    0.41941936853980
H           2.49069663189737    1.19994718382440   -0.61927693470935
O          -1.50310654874129   -1.57961520548973   -0.41295366579650
H          -1.98376693339668   -0.74121178797959   -0.38532879634406
H          -0.70520002480656   -1.38434058957315    0.13613474529706
O          -2.19530197932624   -1.94511157370285    2.23809222505539
H          -2.14201193699156   -1.99600252705683    1.26441042724455
H          -1.63642553296888   -2.64831606320115    2.57637596773280
O           2.26802969404550   -0.66351156107333   -0.66501798621790
H           2.96406900819433   -1.26837564760541   -0.40503276987255
H           1.59989310616233   -0.68270766395871    0.06628510178735
N          -0.18863412891493    1.69774965084159   -1.61920626691014
H          -0.08842231052362    0.77692906378778   -2.13530179603583
H           0.78211935453567    2.00170572201439   -1.28741709383459
H          -0.64060269926025    2.40804975354406   -2.18338587980971
