    26
        -50.47059250  Gyration_radius:  2.45847846709 Dipole_moment: 5.572
 S           0.63023342648925    0.24643243859407    1.42529808606429
O           1.76955396975113    0.41707554268678    0.56251599032157
O           0.29777697899077   -1.13948919453481    1.68649874901855
O          -0.56519221656482    0.94112181776028    0.87170962942473
O           0.95349370407738    0.95027540107083    2.77634129939119
H           0.10187400188020    0.93365534154850    3.25257808069195
H           0.14877764724047    2.01401694857982   -0.34830585781415
O          -1.64733963758896    1.13069973113090    3.26596368827839
H          -1.93537279090863    2.02775062053546    3.45022575355760
H          -1.49696531662756    1.07513526521241    2.30240342016697
O           1.86910712717904   -1.12303004714422   -1.65339913775212
H           2.00341570126400   -0.57447878082676   -0.85782484490563
H           1.38210868242419   -1.89846459335155   -1.34745111583330
O           0.69985705151451    2.36441955540299   -1.06837886658356
H           1.59300778482154    2.11039659936606   -0.81111990569634
H           0.35354143197943    1.31584005402133   -2.41447505041833
O          -0.07086775769407   -2.71868758520926   -0.31089298286362
H          -0.20532049111623   -3.61375764459373    0.00392673098176
H           0.13138229393242   -2.17112687653236    0.49643937502743
O           0.14838138761161    0.47325709770972   -2.88141040327167
H          -0.85855888831443   -0.11622768395679   -1.98557154273204
H           0.90423331369203   -0.12205082377645   -2.65737943389492
N          -1.44805394373590   -0.53982376262438   -1.14999712419638
H          -2.44404277952121   -0.53313349779874   -1.33880240730501
H          -1.21445575165884    0.04924943443659   -0.31120002581126
H          -1.10057491919052   -1.49905535762080   -0.95769210374220
