    26
        -50.46834195  Gyration_radius:  2.47256757193 Dipole_moment: 6.106
 S          -1.09859170662600    0.77399302570573    0.80031327115489
O          -0.61879022502093    1.36505161360641    2.04038420242413
O          -0.59708524912962   -0.60706721929950    0.68288565611479
O          -0.70509150687413    1.54826634142242   -0.37063050663380
O          -2.63921757873660    0.70253730754329    0.86857806464856
H          -2.91012550986077    0.57171043040356   -0.08268241612678
H           0.91773080001300    1.25866080634821    2.03824115235889
O           0.83770334702424   -1.36709297903171   -1.33160265586597
H           1.17457874480627   -2.22588534129824   -1.06910732463598
H           0.24564331036954   -1.07562280142573   -0.58941656398179
O          -2.79473024391205    0.56249148244189   -1.69736325772139
H          -2.01783981012259    1.13323258004264   -1.58040315614767
H          -2.45685703078554   -0.24879373842099   -2.12771085834855
O          -1.37041276375732   -1.39315653090546   -2.96806690095851
H          -1.12939578768567   -1.06352878469755   -3.83548000510187
H          -0.54852753338516   -1.42060699242399   -2.44248283167889
O           1.24415614705463   -1.59437849951552    2.26989742095980
H           0.83816145447358   -1.86635841560390    3.09444337482232
H           0.49700835613518   -1.32401135491218    1.68246393480163
O           1.86506250793287    1.12740111204835   -0.74093989790093
H           1.78466566728551    0.23724154133261   -1.12263581047322
H           0.93660873460846    1.45414421779990   -0.72241632530663
N           1.92976651369428    0.95430844910286    1.86801227300556
H           2.59289051163339    1.51094406712661    2.39562793133903
H           2.07303706493522    1.04359773566273    0.80896402497557
H           1.94965178597450   -0.05707807303817    2.13112719432504
