    26
        -50.45645608  Gyration_radius:  2.46882122115 Dipole_moment: 1.953
 S          -0.95814161625498   -0.52786385005642    0.78840427735215
O          -0.60314918319044    0.30276419975587   -0.35370387247422
O          -1.76280064598208    0.15251868154842    1.75708571587780
O           0.34656862578368   -1.02944799701554    1.44429746945731
O          -1.62921824134140   -1.78896982331798    0.32930720073909
H          -0.99946501702272   -2.25379738367621   -0.43427870422937
H           1.10739891334520   -0.36194902893114    1.40024609940294
O           2.24727170829560    0.67614729659919    1.30055621954680
H           2.50275355817622    0.91159099836787    2.19512295472822
H           1.77309342942339    1.48042603627405    0.92959966805849
O          -0.19325531348049   -2.66957620815668   -1.46759264674775
H          -0.61288682300924   -2.15322840344737   -2.21246575754783
H           0.67324928399196   -2.22901095859279   -1.33363647929621
O           1.71917170398218   -0.81490371899825   -1.18043718426096
H           0.94920264571995   -0.24741979518535   -1.00732499835229
H           2.37516988508645   -0.57684979041186   -0.51946834985287
O           0.66283056960824    2.55821558282531    0.48775954399542
H           0.24836068035400    2.67599953285525    1.36411494640655
H           0.08481617218367    1.93972801496767    0.01173409765491
O          -0.45718100479254    2.15677774989977    2.91117537888100
H          -0.97750640432679    1.39631630036955    2.57854968638543
H          -1.06560196817799    2.68711752516812    3.42847564185107
N          -1.27046229594079   -0.81742853478074   -3.03500904511637
H          -2.23434904614571   -0.85525950972948   -3.33972820327210
H          -0.71417876003617   -0.43979461822112   -3.79147066617013
H          -1.21169086626902   -0.17210229810429   -2.25131298302107
