    26
        -50.44714253  Gyration_radius:  2.68702198415 Dipole_moment: 3.787
 S           0.02732055110986    0.44184693615260   -1.42944907357560
O           0.72254498226190    0.87690216136409   -0.23438595599212
O          -1.18812918242388   -0.27423514202498   -1.18932769222567
O           0.98343798775221   -0.40306049463864   -2.28472122849377
O          -0.23772615788395    1.66636149995910   -2.31064088165920
H           0.66046377925927    2.18170098738122   -2.33318399589831
H           0.85421141076170   -1.40533356304056   -2.01426438811108
O          -0.85953741153416   -2.17090615188609    2.56359837140793
H          -1.37923716068782   -1.36906356724301    2.79603259607782
H          -0.53455441334555   -2.52590595500140    3.39247012062069
O          -2.26854008620246    0.02728381423519    3.18444292985568
H          -3.22129702153869   -0.07797060174428    3.18664629764949
H          -2.06400762551282    0.61211448003665    2.42070651946088
O           0.47495680256304   -2.66627753569965   -1.35628029751096
H           0.83075877623966   -2.43953944152504   -0.44696080182262
H          -0.48186520566813   -2.58183573004235   -1.28597876371090
O          -1.72624588753391    1.37907722711250    0.93049845845199
H          -0.76893482076467    1.48089274701685    0.85478154747898
H          -1.94742964016767    0.76124202606404    0.21907525166304
O           1.18449278287570   -1.61153451901672    0.90451493533130
H           0.44382678634923   -1.81266748587756    1.51912720857535
H           1.10178842708380   -0.67710820207483    0.66613024247362
N           2.11276212567510    2.62489569112989   -2.03532738162031
H           2.34462795200490    3.60525988200428   -1.94623335096890
H           2.78149822913312    2.17760927320218   -2.64790245088768
H           2.15481401039588    2.18025164410672   -1.12336821663945
