    26
        -50.45163683  Gyration_radius:  2.47466551775 Dipole_moment: 4.297
 S           1.12339252921335   -0.05134746427121    1.55289367876538
O           1.90964463187920   -1.15613796795993    1.98622841704420
O          -0.23664340643967   -0.43706743441669    1.18885805438778
O           1.74930613798824    0.67006632002047    0.35156795123264
O           1.07846426119943    1.03358467855740    2.61922015758488
H           0.75216902327529    1.92098193872360    2.21345401596734
H           1.74770909704912    0.05270846627908   -0.47860738505731
O          -0.84795472930931   -0.18211711319479   -2.58397803597053
H          -1.10446529095464   -0.52673391373292   -3.44046422406584
H          -1.36317127602169   -0.68645016064698   -1.91070106216104
O          -1.94213647265467   -1.64507438203520   -0.63064118049851
H          -1.56470738322767   -1.17885554847996    0.13078066529925
H          -1.49300899683357   -2.49664671658952   -0.64103606280793
O           1.53413464615973   -0.92734958371350   -1.57837076799057
H           1.25927784250424   -1.74328676546474   -1.11202106149133
H           0.73386252207671   -0.59514922922037   -2.04324848060493
O           0.61318987154695   -2.81708543370920    0.14266750282547
H           1.36014496838972   -3.19064482963857    0.61727769027054
H           0.31648621516208   -2.07888727060354    0.70108667470676
O           0.13829958515355    3.15977183016634    1.61666908171251
H          -0.33476669453668    2.78752909971129    0.80633443500588
H          -0.54094152532002    3.48315033146136    2.21296059042266
N          -1.12688012353469    1.86883813380003   -0.28280639392980
H          -0.68757476820393    1.80782897120107   -1.19366744544299
H          -2.12534938948459    1.94426888704786   -0.43324311872702
H          -0.94848126507072    0.98410516670452    0.18878632351462
