    26
        -50.44620261  Gyration_radius:  2.54397628407 Dipole_moment: 3.820
 S           1.18668211222941    0.02806333279970   -1.30256489197819
O           1.19454875445161    0.92170531645513   -0.14955234454081
O           0.10802696270918    0.26231291082627   -2.20951105618095
O           1.23071718967016   -1.38278018183582   -0.82033749472166
O           2.53205453800627    0.24726399474658   -2.06647576368525
H           3.20269405944423   -0.02933114575166   -1.41585813709392
H           0.27096705498012   -1.77621513081594    0.13468917840308
O           0.11579407191362    0.30871655296930    2.06408059656397
H           0.52850077694413    0.63204619816877    1.20251054943727
H           0.80115312038187    0.39773043839144    2.72875755677751
O          -0.40440594845517   -1.92938935471414    0.94376430648879
H          -0.22733940953372   -1.11707112398684    1.53266479511155
H          -1.37840993911877   -1.78339232057563    0.56177598650274
O          -2.47173036329366    1.01729880300059    1.08208204339460
H          -1.69303386523033    0.94793639002750    1.64798698341973
H          -2.16739344746956    1.56868005058174    0.30330778852206
O          -2.70813794526644   -1.36122045237376    0.15706187205103
H          -2.70316723989926   -0.39172791112101    0.45711821789055
H          -3.44083872173278   -1.78598500212688    0.60663434740899
O           3.75659200578202   -1.14568553526872   -0.14463312029673
H           4.29161235664218   -1.86926720830809   -0.47813381094461
H           2.82285500864249   -1.42377140727809   -0.23702954618779
N          -1.38222126279072    2.32578401140920   -0.94339683042355
H          -0.61519280083671    2.88280802444081   -0.58580584605693
H          -1.89846933906099    2.89453435913842   -1.60311873882480
H          -0.95185772905531    1.56095636124355   -1.46601664109062
