    26
        -50.46044967  Gyration_radius:  2.45536517268 Dipole_moment: 6.757
 S           0.62442097576866    1.37009618708176   -0.41307474533969
O          -0.61621309288617    1.15848303834541    0.33325597451707
O           0.41418457205658    1.53242688980563   -1.82266407811279
O           1.49780536858114    0.07400120744212   -0.16891719661537
O           1.43898017887867    2.41947012244237    0.20416939295063
H           1.85320072747586    1.79723344134256    1.39569619813889
H           0.92708394901589   -0.73576829389273   -0.06755911453651
O           0.12524117705041   -2.07387345266111    0.33994569862939
H           0.62210090867611   -2.83643972972984    0.03901898116621
H          -0.68247914877525   -2.02521837705105   -0.27842741782678
O          -1.75497102077828   -1.89096317220376   -1.37860485083443
H          -2.32824698890806   -1.12791057754844   -1.16277789862625
H          -1.19557043215629   -1.57209241329757   -2.11899004342996
O          -0.11063635836096   -0.69592022317278   -3.13897334246461
H           0.13132508715414    0.12877357594289   -2.66192838056676
H          -0.51559457569306   -0.40471776446711   -3.95792834532237
O          -0.05647238434018   -0.24963191734536    2.43212600424536
H           0.00331027388617   -1.11476834659760    2.00003999729324
H          -0.45189320120016    0.32519810056180    1.73111732803881
O          -2.94137915419297    0.44634640488667   -0.73892606971208
H          -2.08752624534357    0.80962855908422   -0.42513328058911
H          -3.56208864955325    0.56852243025362   -0.01908565987043
N           2.12714875424827    1.17800107804770    2.28796580552960
H           2.93923189453616    0.62206074935477    2.03712566010334
H           1.27923311229651    0.53429713128488    2.45746134163508
H           2.31980426262921    1.76276535224224    3.09506803156504
