    26
        -50.46065870  Gyration_radius:  2.51562015205 Dipole_moment: 2.174
 S           0.24769876852839   -1.34452682118978    0.24486876655183
O           1.34569811206154   -0.39341032577652    0.05875892259245
O          -0.79867960971289   -1.10990395422377   -0.74294556803578
O          -0.25380895642308   -1.33485913045464    1.60347345103707
O           0.87064419530997   -2.74912888456317   -0.04401301541195
H           0.23336057305500   -3.37578534936447    0.35615877997647
H          -1.41096853901361    0.56980039063640    1.59457847436600
O           1.68199244097677    1.44767973233052    1.97905106472372
H           1.54203479723537    0.66843403290407    1.40494647776622
H           2.61519950896552    1.45653644413171    2.19574865700726
O           1.16496265494815    1.58488218908888   -1.53428761765186
H           1.35367358100206    0.75718556653957   -0.98159430287466
H           0.31561243169213    1.28706370986248   -2.16306391098114
O           0.13347198202758    2.88616719395967    0.33119620281612
H           0.73539083883474    2.62202696749242    1.05711163929514
H           0.76345718697439    2.25000459929449   -0.80879196263745
O          -0.96416401979837   -3.84392416681018    1.50757988790411
H          -0.91587585830292   -2.88980199057774    1.72990361986903
H          -0.65928470311174   -4.31864119938921    2.28422378745692
O          -1.63737777331243    0.93800364842799    0.73414010421041
H          -0.66079050848031    2.31901282937853    0.47259934261404
H          -1.48028654604306    0.19583121839792    0.12142629557894
N          -0.84271292837842    0.73267070802500   -2.78492591226852
H          -0.95933633914070   -0.08236793173965   -2.16979806936648
H          -0.75132847114685    0.41493283986832   -3.74050620269012
H          -1.66858282877337    1.31211769378035   -2.70583893184952
