    26
        -50.45401321  Gyration_radius:  2.47147898182 Dipole_moment: 1.208
 S          -0.51236501834621    1.28444537886430    0.51836692519117
O           0.19731548918298    1.94753629698233    1.56722914459159
O          -1.27032166001434    0.12577152376161    0.93430687609432
O           0.48040807834902    0.83007828865001   -0.57058152619131
O          -1.43108412498379    2.26823010425779   -0.19224443506637
H          -1.79791635771513    1.80690402888053   -1.04402265306667
H           1.43945459982496    1.11517008333397   -0.32071809304953
O           2.16973739524793    0.26324676686934    2.43177859950772
H           1.44267058026351    0.90328288091664    2.48655128543363
H           1.75194030854631   -0.58334923365375    2.19097878476133
O          -2.22803855920615   -1.29032627557158   -1.17317516445517
H          -2.06393822605753   -0.92424037369303   -0.28891228857321
H          -1.36918076852040   -1.71360083366375   -1.41769271950430
O          -2.33726832143250    1.06238843352974   -2.20117912695851
H          -3.26466828004908    1.27802791460115   -2.32382865174029
H          -2.30758750599433    0.09319450187156   -1.90915876538523
O           0.49647324774190   -1.74991763075345    1.60223231689754
H          -0.19631180455381   -1.10175541838279    1.35970375455895
H           0.11018427682777   -2.31899907816079    2.27102392854661
O           2.77554149253516    1.50149066814815    0.21684060871355
H           2.75986505114988    0.96820145961195    1.06068405737917
H           2.69693618094710    2.41822687655311    0.49392180173819
N           0.34217528301934   -2.06483302536878   -1.46250581489534
H           0.60326040185030   -2.28201617634480   -0.50576995298285
H           0.68489787207589   -1.12895707213725   -1.64943303197846
H           0.82782036930137   -2.70820008909524   -2.07439586957401
