    26
        -50.47166710  Gyration_radius:  2.38838880043 Dipole_moment: 3.164
 S          -0.38944351221159   -0.54870957273203    1.25210073922346
O           0.67546613987707   -0.06926991602158    2.11933041799350
O           0.11870773754421   -1.45948300331723    0.23176611018946
O          -1.10809158645269    0.57572266595156    0.64596757496577
O          -1.39974561157511   -1.33747602243906    2.12673617504132
H          -2.16518004512570   -1.47483623960455    1.51439102118516
H          -0.68076951869369    0.75720624871518   -1.00152533382277
O           2.09998141112347    1.56179067922061   -1.08597712343621
H           2.47897200695753    0.70654992625554   -0.77390410796091
H           1.48953053795691    2.08320865354969    0.13061214896970
O          -0.32431449455722    0.81239339228725   -1.90841301208051
H          -0.58357207509194   -0.01830664718781   -2.32333645042697
H           1.29939816541121    1.31514230983345   -1.60341034733403
O           2.67469772742532   -0.74298664911965    0.11256765484114
H           1.77747189934413   -1.13001457074770    0.07304964273682
H           2.85045359672763   -0.64259412575627    1.05108385841356
O          -3.08989072257495   -1.20466232559392    0.13946083610065
H          -2.70253991280086   -1.58396835080840   -0.67043774212235
H          -2.78393027614545   -0.28701989376618    0.15089083176373
O          -1.34720600390967   -1.90134008763977   -1.88505106262680
H          -0.73481708308120   -1.78700320558095   -1.12100192222793
H          -1.17071300071046   -2.77303846690999   -2.24178842456519
N           0.91025179909501    2.28841067915948    1.05988358033163
H          -0.07708499633212    2.35752214080754    0.80031021040031
H           1.23430867361453    3.10513396804974    1.56687087077393
H           0.94805915420362    1.39762839340818    1.63982384366668
