    26
        -50.45681937  Gyration_radius:  2.43737643645 Dipole_moment: 3.689
 S          -0.15372257758207    1.13518747512618    1.40918868539350
O          -0.22171714684737    1.35272450454177   -0.01512909351123
O           1.08844611257392    1.54305690355866    2.00198142823546
O          -0.40722513366021   -0.35647340613602    1.71219269283576
O          -1.33809133157464    1.81302459314903    2.08185658567552
H          -2.11135619916584    1.66553269815736    1.41064981708322
H           0.31279003846490   -0.96054434084638    1.27483256358192
O          -2.96585117915753    1.37883724880269    0.21074741469339
H          -2.82735549616500    0.40482393237258    0.00020868945084
H          -2.44669652669461    1.84195113401807   -0.45431268355004
O           1.34420210979551   -1.71072888022735    0.52102466653763
H           0.95915561337122   -1.77386922999989   -0.38232071677753
H           2.07197549127917   -1.06106737122535    0.46590350696216
O           1.57130800237815    0.77241283915963   -1.90830295594152
H           0.87908936729541    1.16919222704844   -1.34826556324574
H           2.33294212099243    0.69523219169795   -1.31852986382311
O           0.31460411300452   -1.54426876488036   -1.95071907053799
H           0.74865679090277   -0.65700681707751   -2.05734161541745
H           0.62331762533800   -2.08510703347817   -2.67921650824719
O           2.98886390427005    0.45483651470404    0.51908104475932
H           2.34198915212873    0.95292209783068    1.06846646920848
H           3.82859062572461    0.51514801326177    0.97894893580844
N          -2.35014465710809   -1.13973989619700   -0.36616788057597
H          -3.02730746596962   -1.82321500757979   -0.68087024354682
H          -1.98191783934333   -1.44288122933884    0.52801686691697
H          -1.57454552424772   -1.13998039643680   -1.02192317196726
