    26
        -50.44828843  Gyration_radius:  2.47099379847 Dipole_moment: 6.021
 S           0.36487827566253   -0.26017114212946    0.97427988024704
O           1.26983147605598   -0.43399335429217   -0.14787641365120
O           0.12749117829460   -1.44082445293034    1.73554965229665
O          -0.92725155517378    0.35266350694614    0.47698314132978
O           0.96736305049447    0.80693059420064    1.91754334914743
H           1.07676900701345    1.65997831689392    1.41091939789393
H          -0.97990003793293    0.55808459057136   -0.58168508001203
O           1.34543591182858    2.93087627349170    0.47679615620062
H           2.12948514392964    3.42400504388933    0.72840270354971
H           1.48471379296316    2.60866731951500   -0.43456338360342
O          -1.31443696114925   -0.00571385429182    3.61662585768301
H          -0.67173871893998    0.69948773689942    3.71096931251124
H          -0.89111420603895   -0.67102026623804    3.06127888065432
O          -0.94007206967894    0.72810744569349   -1.96802528991273
H          -0.13494912791528    1.24446228289599   -2.13512261419578
H          -0.72120711030593   -0.21651224678459   -2.23378890423904
O           1.71298078008010    1.52594712555123   -1.80486400982303
H           1.64229950669976    0.73556252152119   -1.21582713086196
H           2.40823550126867    1.33639623978747   -2.43743956915251
O          -0.12865620648533   -1.72032652968504   -2.16925155653916
H          -0.80493873020452   -2.16526090766458   -1.60093046879003
H           0.60757011412834   -1.54451756234985   -1.56742257888679
N          -1.77796109466592   -2.51677594049942   -0.20097750363888
H          -2.17064977722864   -3.44221471258177   -0.07681430286011
H          -2.53407810866454   -1.84890231711771   -0.10658338198280
H          -1.14010002336705   -2.34493571180180    0.57182388594010
