    26
        -50.46487305  Gyration_radius:  2.45893033289 Dipole_moment: 5.075
 S           0.93149169246296    0.11011550920225    0.83087837766714
O           2.24644398104191   -0.09333033606087    1.38244517108248
O           0.15612025483048   -1.15693536994361    0.79259032245570
O           0.15440270561137    1.16093685342866    1.45289631877286
O           1.16190575061904    0.47818937034671   -0.66765647809018
O          -2.35876919093258   -0.77164736214772   -0.03728760074924
H          -1.50921773033752   -1.06525162270804    0.34209853594654
H          -2.72006799248205   -0.16869503095242    0.63386849559380
O           3.50440795452899   -1.07530892980556   -0.63604123567047
H           3.14574475096932   -0.72621254667106    0.22691649736811
H           3.66023622493014   -0.28914603664417   -1.16552937730600
O          -2.45131730662741    1.02842039407237    2.03795013686952
H          -2.59720049268265    0.81301786315060    2.95960414762839
H          -1.47862058954220    1.05395381593323    1.91396292983343
O          -1.38560887593445    2.91289526563662    0.02845118089060
H          -2.18590966999681    2.75712144472959    0.54058740417686
H          -0.67357915199809    2.50900625734244    0.55437398743532
O          -1.10090996353452    0.87823773273224   -1.67339231729882
H           0.24649942963366    0.67294762839842   -1.11249246190531
H          -1.68760306235595    0.23658614567438   -1.19673096155207
H          -1.29932831623081    1.75207201857379   -1.26679201943760
N           1.24359705623574   -2.23469751199067   -1.21965971743004
H           0.79389784430985   -1.84219416358652   -2.04290552646752
H           2.23486894414566   -1.82526372113950   -1.09886678874334
H           0.71567084736471   -1.86543452341316   -0.32373067950744
H           1.25284490597430   -3.24938313412429   -1.25553835156383
