    26
        -50.45024562  Gyration_radius:  2.63711670598 Dipole_moment: 5.072
 S           1.09214281304281   -0.46906098456907    0.58752077343836
O           1.29920927156641    0.41166210852185   -0.53137773218459
O          -0.08237314878332   -1.29681691888223    0.48474987481332
O           1.03643081195040    0.33001054909265    1.89179791604439
O           2.33160980813375   -1.34058029231224    0.77646674027121
H           2.03781715180087   -1.99772861918358    1.52023312875599
H           0.18529523069448    0.94999011672302    1.97286969984070
O          -0.89955463206674    2.04261758822648   -0.81363467556175
H          -0.04710048962355    1.58448944255691   -0.75669677315719
H          -1.09764849671509    2.07637172477151   -1.77007409029959
O          -2.40036047637356    0.13115533154327    0.45464795358215
H          -2.14067967684827    0.78128454210295   -0.22410642574190
H          -1.72535283635147   -0.56535105260550    0.40819115921894
O          -1.02053000372030    1.74824335197530    1.97426528741898
H          -0.90747858993402    2.39366765763029    1.26269506354616
H          -1.70331189460033    1.11919215989319    1.60991867443419
O          -1.22723600389057    1.52006529658684   -3.46042358986765
H          -0.45118740771272    0.92224637825998   -3.46214713275138
H          -1.98432569361359    0.97380667094386   -3.67715070247179
O           0.94073754063650   -0.09772136416365   -3.16987678504876
H           1.07730786109725    0.00496262152366   -2.21062244630161
H           1.74524914002859    0.21812729041724   -3.58586031117945
N           1.17990259628850   -2.76768658133899    2.54172118469776
H           0.30386702438190   -2.60783315892084    2.05271600125658
H           1.14315295870645   -2.30501912480128    3.44035984946969
H           1.31441715190490   -3.76009472405855    2.68381735779521
