    26
        -50.45027253  Gyration_radius:  2.62069536681 Dipole_moment: 2.239
 S           1.12979872971648   -0.00010069669456   -0.02814045716383
O           0.01807172529905   -0.91881816960385   -0.03306645889118
O           1.13862236080670    0.92147822746395    1.07164574992157
O           1.14332559854907    0.78780578713467   -1.35000035069786
O           2.43975218768274   -0.77582190557330   -0.04624733846339
H           2.40247479828049   -1.51398912508809   -0.76517192675247
H           0.57020866895745    1.63511453611926   -1.18192308165431
O          -2.49052064743543    1.04267135533321    2.69569043436908
H          -1.59638925076462    0.80592131555640    3.02354667242457
H          -3.08076535770342    0.35871765262558    3.01575452341646
O          -2.05383733938360    0.85025257015021    0.03931656638180
H          -1.44374252320539    0.09565180425342    0.05039416674169
H          -2.31113816539167    0.99566677339163    0.97581866849594
O          -0.34063098655929    2.67632877156803   -0.64082196271146
H           0.05913129590056    2.87533217963146    0.21167813599755
H          -1.13269737887981    2.09691856446546   -0.43653416094093
O           2.17689620250200   -2.60366420753831   -1.77131789957044
H           1.39317926288556   -2.25765070152744   -2.29971243124842
H           1.85547883628256   -3.36266569406213   -1.27872891482574
O           0.01403440888983    0.36977463181335    3.43788176161219
H           0.45260010250882    0.49863150892593    2.57450519828893
H           0.47397659048522    0.94219322037561    4.05503889096474
N           0.00973121543094   -1.54722793835532   -2.82207870882404
H          -0.73207314344142   -1.96587966165618   -3.36876111781518
H           0.24885220996160   -0.65659806599278   -3.24009153280362
H          -0.34433940147693   -1.35004272292690   -1.88867440631675
