    26
        -50.46433500  Gyration_radius:  2.4536306097 Dipole_moment: 2.428
 S          -0.65794546947761    0.14721193000286    1.21580524168125
O          -0.72439112078999    1.44454341671252    0.56326084217280
O           0.71046948115628   -0.34847069690505    1.27426219704640
O          -1.54363007970349   -0.82892391393013    0.58206041531292
O          -1.15884317800631    0.36605605350119    2.67564852858053
H          -1.31509710790315   -0.54110235806451    3.00625100760869
H          -2.07812330120771   -0.06851091162231   -0.85858447743935
O          -1.77753233738158   -2.20015663255691    2.79921777989969
H          -1.74630337610764   -1.94162322314926    1.85566464810390
H          -2.69089780432255   -2.42312168748496    2.99292635912856
O          -2.22937667205500    0.50946176811788   -1.63179249683101
H          -0.77132783080653    0.40212882135806   -2.51640330705736
H          -2.27442426724647    1.39519385977872   -1.26178758254834
O           0.19671530767335    0.34190399046713   -2.70301160535091
H           0.48590630392964   -0.47397272931594   -2.23339206172345
H           0.73919982090246    1.40423458321907   -1.90036166839839
O           0.69843669043588   -1.67340853621474   -1.02286699522966
H          -0.12547849153292   -2.16593028760831   -0.99510961404575
H           0.76583308753505   -1.25347108305654   -0.14086410223187
O           1.06660295319914    2.06451926771936   -1.12836623281699
H           1.93890988705419    1.57803336996662   -0.69481829758787
H           0.35028211901934    1.94955944559122   -0.41921186773192
N           2.90846484219632    0.75690317125568   -0.01091408654619
H           2.27169333520393    0.29572604641969    0.64740846658456
H           3.64358858281586    1.21888823992085    0.50720212151541
H           3.31726862538984    0.04432812585717   -0.60222322192303
