    26
        -50.45362457  Gyration_radius:  2.46816356395 Dipole_moment: 8.748
 S           0.95719629604130   -0.18329180328354   -1.35424991281374
O           0.21161942959663   -0.20417470954025   -2.56043407398553
O           0.77342115830085   -1.29562844859818   -0.44968962595431
O           0.59479404855977    1.11513904167211   -0.56332250356151
O           2.44927857524423   -0.01997414664446   -1.64673699053855
H           2.93563746110697   -0.03397887383400   -0.73054801661606
H           0.66235444584085    0.88914386208399    0.41994674023788
O          -1.89648539597773   -1.71702225957700    0.09236070650046
H          -2.29902860119749   -1.31633777922754   -0.71766065258693
H          -0.95936220175726   -1.82240444175027   -0.12804160131075
O          -1.94866094093353    0.21697620761509    1.81282387592395
H          -2.64154489138076    0.07917817574791    2.45944788293490
H          -1.99591613483485   -0.56518156851707    1.18011128124898
O          -2.53537136669046   -0.27781249611376   -2.03473625572110
H          -2.60742348210200    0.59186476434227   -1.59702020529454
H          -1.67501825694943   -0.27813957899150   -2.47689570585786
O           0.70478757099110    0.12576059672782    1.78545582121770
H          -0.24085856525611    0.23849121112464    2.03354263655526
H           0.73170066506431   -0.71354183743847    1.29228752260146
O          -2.16068096866135    1.91025467840598   -0.41992320365165
H          -2.19338179632358    1.46236681528192    0.44056375796172
H          -1.22627411418136    1.99800178198651   -0.63427410300677
N           3.49678978582569   -0.03854511231150    0.70309625021269
H           4.27842694911941    0.59562478324001    0.80670451520113
H           3.80919972647492   -0.97651988949756    0.91908924583869
H           2.77480058420604    0.21975101711540    1.36810262442783
