    26
        -50.45027243  Gyration_radius:  2.62070330051 Dipole_moment: 2.247
 S          -0.96126251626681   -0.31565439326605    0.50214049088206
O          -0.97526138532865    0.92878441752005    1.21641005574083
O           0.35565406981348   -0.82298601443052    0.20496818566043
O          -1.75194229093172   -0.15696680859118   -0.80849979422188
O          -1.74957498141817   -1.35555717436759    1.28655768399304
H          -1.65992384006389   -2.27895857019990    0.83674448749706
H          -1.56351896966167    0.80748754144664   -1.13892133062727
O          -1.36476769183100   -3.57478958378842    0.14046215256837
H          -1.02605861450036   -3.27119138521230   -0.75746505454327
H          -0.61244849819789   -3.96028076381151    0.59590202348315
O          -1.04358523313315    2.18166044407161   -1.35651271093112
H          -1.17134579946664    2.58757568496141   -0.49329110389740
H          -0.06542313886052    1.96926901966886   -1.41040024474434
O           2.58955159685691    2.66098919964504    0.87874505405333
H           2.04635269009378    2.34367291496649    1.63187351568496
H           3.48036559836480    2.34772750917104    1.04278982247120
O           1.39158013279884    1.31495406369397   -1.13045806765000
H           1.19472055839413    0.49348509132975   -0.65272934705911
H           1.86871825291737    1.88546145750425   -0.48917107002032
O           1.01135371739815    1.69258523137757    2.84054399223321
H           0.29269993632468    1.34323983376428    2.27859031121350
H           0.59704592123875    2.31542830232368    3.44095276571335
N          -0.32970727027702   -2.48510844488252   -2.01778352612551
H           0.20589368259999   -1.84490820324209   -1.43570854550019
H          -1.04244060040820   -1.93501840269328   -2.48100630284158
H           0.28332469361932   -2.87090098697349   -2.72473344301599
