    26
        -50.45063625  Gyration_radius:  2.58399360173 Dipole_moment: 3.826
 S          -0.38855953708982   -0.74740326240729   -0.88056594041930
O          -1.14947127224219   -1.41598532680359    0.12542366276856
O           0.81725022342283   -0.10278432133933   -0.39886652128379
O          -1.24979049365246    0.30347276445269   -1.59446177760059
O          -0.01533078348895   -1.73786469400523   -1.98255532972951
H           0.41547989708623   -1.24753866580243   -2.76835159668058
H          -1.95644195132159    0.62727540842378   -0.89257784327978
O          -0.43054886720703    1.62665898416927    1.37425744928539
H          -0.36862329471397    1.28308105953026    2.29402025877507
H           0.15983696362143    1.07112872569119    0.84592312566425
O          -2.70150168233622    0.93014489366445    0.32692348979465
H          -2.81057896199583    0.05231009697382    0.70952889588730
H          -1.94371657711888    1.34852462277300    0.82931918756991
O           1.13757359561261   -0.41276735853630   -3.82140678104412
H           2.04177273211059   -0.71434632086874   -3.93732219918985
H           1.19031712343402    0.48097948004710   -3.39086735984598
O          -0.07011832084483    0.40562460172251    3.74003829670136
H           0.65852085873776    0.72964636644364    4.27154728489441
H           0.24736657498486   -0.41859299757694    3.29495595038831
O           1.21733221754315    1.72717749061161   -2.30278727407416
H           0.38230642963133    2.20166972760584   -2.30399663994494
H           1.20454098347877    1.16818159579738   -1.50220236985651
N           0.85219107209421   -1.63014564265031    2.21828946012928
H           1.58101666312072   -1.24004185294196    1.63118322919564
H           0.03759603624677   -1.72900137471626    1.61645310517594
H           1.14158038094598   -2.55940399039876    2.49809825666878
