    26
        -50.45840138  Gyration_radius:  2.4962866955 Dipole_moment: 3.749
 S          -0.70744861452320    0.25097574921235    2.00882731179669
O           0.31670753227994    1.25550655862090    1.76966515192470
O          -0.15029392401417   -1.03252320026128    2.36549214087552
O          -1.65777321587968    0.16610241773696    0.90274065342485
O          -1.58127335182415    0.76158771314526    3.22526402412247
H          -2.42659959217790    0.82976721570436    2.79569886206790
H          -1.54865881790690    0.06852292147433   -0.60516903511923
O           0.48528896728578    1.59298280755320   -1.88871204926405
H           0.19078519500561    2.32826996884752   -1.30136863955016
H           1.17545198508290    1.11926218084395   -1.36075309852606
O          -1.37390992580894   -0.02128594569438   -1.60204266345343
H          -0.92234380277706   -0.96802473606052   -1.73581867303535
H          -0.60576392455693    0.70752822915062   -1.81043908970045
O          -0.26672460938037    3.20062410875239    0.09369244268738
H          -0.12018797246830    2.49643031902249    0.76522963993434
H           0.30384152103569    3.92772557383147    0.34829501121726
O           1.25474864877634   -2.29317660361633    0.59636206129630
H           1.86774121707542   -2.83677249490279    1.09420635607243
H           0.67868664733779   -1.85555499504960    1.27608232024193
O           1.95306640606818    0.28923521827723   -0.12373303247943
H           1.86233770984036   -0.66890048877082   -0.00194190844779
H           1.50183398470635    0.68546091676327    0.64559556992686
N          -0.19883521047611   -2.27406495400170   -1.86362839315466
H           0.31926329667214   -2.38983457569759   -0.99121933209798
H           0.46547470009706   -2.27166744757507   -2.62717290755412
H          -0.81541483948805   -3.06817643732622   -1.97515270320062
