    26
        -50.45869870  Gyration_radius:  2.45216599007 Dipole_moment: 8.084
 S          -1.52197966172262    0.29000199228398   -0.48213480339910
O          -2.09276488634055   -0.20943214808132   -1.69308892762171
O          -0.29548214355217    1.07109577204108   -0.69774738168361
O          -1.26917866867875   -0.74266287061801    0.53015002848605
O          -2.54997472048307    1.29137094109593    0.16100325449010
H          -2.13279138207814    1.55121931024082    0.99116524603459
H           0.02076737357267   -1.85673123500966    0.25167520935782
O           1.89915680949742    0.09097203709801    0.06760382510131
H           1.08125610137825    0.57743517658834   -0.29856108249253
H           1.91174052657776    0.32976492997192    1.09697681109685
O          -0.06502699916167   -1.81847937326960   -2.54515793192786
H           0.34341570794766   -1.06333669895096   -3.00673370707868
H          -0.94588925398995   -1.48674528352707   -2.30460264130589
O           0.23116191755896    0.77052089564416   -3.35059381629475
H           0.07383047960688    1.02073896651349   -2.42432976503568
H          -0.62880414211253    0.81676729837212   -3.77441729404852
O          -1.12729366971328    0.86910533747001    2.51171177559404
H          -1.73715835428635    0.59679130835436    3.20066401039292
H          -1.14260472848998    0.14870320984028    1.82994737538504
O           0.87183036288441   -2.15445519136250   -0.13210592633014
H           1.59547871105367   -0.93939822787493   -0.01922408786112
H           0.66314647537401   -2.22312884656414   -1.10221122454147
N           1.75995339600430    0.69776455691482    2.54793048473735
H           0.76113913514952    0.87895789298512    2.66187894979606
H           2.26791581483262    1.53631522346485    2.79741676952742
H           2.02815579915431   -0.04315496363799    3.18278483961799
