    26
        -50.45130965  Gyration_radius:  2.43423603169 Dipole_moment: 3.699
 S           1.26445035242476    0.02176890725640    0.30348059762589
O           1.99710482995891   -1.22132496534149    0.38125754072734
O           1.76406247705738    1.06273695394105    1.17255086500223
O          -0.23102944501176   -0.27865404927786    0.73069458839629
O           1.09113702961473    0.48570385474025   -1.08624274897389
H          -0.26299533123039    0.48806719282172   -1.48486523751329
H          -0.15973824899929   -0.59332480672771    1.66255782461879
O           0.88352837146269   -2.34847713415406   -1.69853038676411
H           1.16750680446379   -1.69197722446125   -2.34037017936022
H           1.34022007025716   -2.07917382196344   -0.86915302798629
O           0.34011953597704    3.00613692149630    0.15700236177727
H           0.69623009645390    2.94631226356134   -0.73359467513779
H           0.88871377539447    2.37208384154733    0.67280563856051
O          -2.12713288039593    2.12658806544375    0.01302117659163
H          -1.22051479919483    2.48454541403895    0.21388256316841
H          -2.64565420248204    2.86598401188117   -0.31063448872806
O          -1.70590303487671   -2.02495258409804   -1.43253220977086
H          -2.09967855759547   -2.48607101281424   -2.17596421524166
H          -0.73905798198921   -2.26116786268411   -1.43470090251112
O          -1.30123645755896    0.46551685860028   -1.72208599874820
H          -1.72989510628222    1.05924479203061   -0.99707461628083
H          -1.57034216429159   -0.51356450141846   -1.54487731186841
N           0.83980520888748   -0.95865342427021    3.01934692161455
H           1.45357068410486   -1.58377588151437    2.50721186607147
H           0.76427383927356   -1.28820579854256    3.97421658991577
H           1.30245513457528   -0.05536601011743    3.02259744482614
