    26
        -50.45130967  Gyration_radius:  2.4342350779 Dipole_moment: 3.700
 S           0.98646689788253   -0.74862896155098    0.39733201162190
O           1.10054647708928   -1.08151413753391    1.79899630754493
O           2.24769603609253   -0.69194127905745   -0.30566400263127
O           0.32188763998436    0.68601889742376    0.30085630886113
O          -0.00797681289724   -1.58647525074106   -0.29960547839614
H          -1.11148637286044   -0.83619605958206   -0.76003362615675
H           0.95993595220362    1.28155869793499    0.75984310315887
O          -1.45168363341797   -1.45883346846542    2.22265364382596
H          -0.48109134256834   -1.29480417067234    2.22715701910937
H          -1.56057550936245   -2.17565183152682    1.59188293646502
O          -1.91356284975534   -0.21296056090877   -1.08090226784003
H          -1.44987325663337    0.50053098667181   -1.66254444048056
H          -2.23800665024742    0.23402721096052   -0.21093680624618
O          -0.61233879056771    1.31342265017376   -2.63881564346783
H           0.18749282245922    0.72230491998233   -2.67626575005786
H          -0.93709458256188    1.38813378985836   -3.53844137370169
O          -2.69309039820672    0.60968798472151    1.19231102026548
H          -2.19272844789852   -0.08442454887841    1.70053532599545
H          -3.62085918494507    0.48364649247214    1.40136757940384
O           1.23640480151058   -0.54605388600235   -2.71231084485576
H           1.75348996460854   -0.53527102516824   -1.87477850132941
H           0.76883301111329   -1.38516290747573   -2.68251751481982
N           2.44926260326312    1.46715256416482    1.60892614344444
H           3.00559349705616    2.18694582202137    2.05443182568534
H           3.01150647042476    1.01768536367594    0.89364466203471
H           2.24125163823804    0.74680269751629    2.29287832256710
