    26
        -50.46496435  Gyration_radius:  2.39631167862 Dipole_moment: 6.371
 S          -0.18223782233254   -1.21302100211317    0.69837772330485
O           0.37241010775231    0.15980057827594    0.68448366253350
O           0.84579773273114   -2.20926025416892    0.76361282704252
O          -0.96655113891970   -1.36018075519293   -0.65746491158938
O          -1.23882589557630   -1.30772402969838    1.69283784216370
H          -2.18058568063737   -0.28070625601092    1.07304289808063
H          -0.35447022309692   -1.15578890056446   -1.41562052195484
O          -0.95249665799123    1.42239214843010   -1.22764035262447
H          -0.30506918275884    1.10446361656142   -0.56471488803980
H          -0.70020530169362    0.97960526739499   -2.04400479020436
O           2.94189722053321    0.86372984364156    0.27717427443913
H           2.03685221693015    0.61972354965676    0.54812582237483
H           2.87917411129432    1.73396516667228   -0.12007918410543
O          -0.88273857630824    1.67396489525626    2.49413677354089
H          -0.27511701073653    1.19190017489523    1.89319661280072
H          -0.88480960446519    1.16991923848534    3.31042110701611
O           0.64016377969353   -0.68983300044813   -2.57631738503131
H           1.48464633252914   -0.93367826829222   -2.07652247908929
H           0.60539981164425   -1.28867523449025   -3.32447779956485
O           2.60272617817804   -1.46062822633205   -1.10713793236003
H           2.08194911982021   -1.89160901046074   -0.39907752370399
H           3.00436565269244   -0.68366203075523   -0.67678832757837
N          -2.59506722581154    0.66022535960964    0.74992950546986
H          -2.16544596411416    0.91232629231728   -0.17566803349774
H          -2.20291091839185    1.32522463328346    1.46085525211843
H          -3.60885107097423    0.65752620405772    0.71931982848285
