    26
        -50.45869864  Gyration_radius:  2.45210188579 Dipole_moment: 8.082
 S          -0.96174970146926    1.15637998456689    0.60901907923592
O          -0.87998303884390    2.53950140830203    0.25985056016700
O           0.30401967849569    0.61082970084965    1.12014003859342
O          -1.46148964015210    0.29583688675579   -0.47022716972169
O          -1.98778615430540    1.01544400580541    1.79252529986163
H          -2.03526122075921    0.06441482815252    1.94719828909185
H          -0.42974148213823    0.00635807551418   -1.82456016986039
O          -2.11922302379367   -1.65880877642996    1.04392810986439
H          -1.89322041567944   -0.98282673343691    0.35408550343666
H          -3.03698535014411   -1.89554769350953    0.89410822916671
O           0.43073343320371   -0.06927945156362   -2.28733054210979
H           0.75921175168805    0.86958738568480   -2.29464610378187
H           1.17790765291961   -0.68823402728590   -1.25233526451736
O           0.98605413329828    2.41787500504280   -1.72274659233567
H           0.18189902315967    2.62629754528119   -1.21902427531081
H           1.69697323455382    2.50561205380509   -1.06162962166153
O           1.55869105740036   -1.04570941793207   -0.30959051808070
H           1.15427855397696   -0.37461427447651    0.34294486476982
H           1.06530740466035   -1.95517378283815   -0.09507377495744
O           2.09419350230102    2.62831854925047    0.76022034667912
H           1.61039081986767    3.42432489466009    0.99173884687352
H           1.51611565790099    1.89195207959774    1.02276894778688
N           0.23390756278243   -3.15391394273781    0.27379870007462
H           0.66574165095175   -3.72990802207089    0.98456378259483
H          -0.00317060387094   -3.73975049903832   -0.51644397678669
H          -0.62681448599536   -2.75896581195379    0.65671741092175
