    26
        -50.45836899  Gyration_radius:  2.49312113883 Dipole_moment: 3.016
 S          -0.41070673093168   -0.00196729658531   -0.95198359180455
O          -1.53563832746675   -0.80237934401200   -0.48195135957562
O           0.85774532417129   -0.66980901823854   -0.67775964396827
O          -0.43460080203961    1.33256583463494   -0.33181281392959
O          -0.58443519724970    0.15639472107732   -2.46670733326163
H           0.18223380978453    0.70104282609756   -2.82582426833604
H          -0.58990930909781    1.25264896684278    1.06453788824496
O           0.77749983897561   -1.04737649503278    1.90911172313724
H           0.98094520639559   -0.95090520317270    0.94729699409376
H           0.14468507807300   -1.79355623787652    1.94124289353002
O          -2.87408821680461   -0.31410324382602    1.75738630971754
H          -2.79538666074755   -1.19878788851517    2.13087126843217
H          -2.63637366599623   -0.41734362543216    0.81120296556944
O           1.47783146224020    1.42117087507755   -3.33271942103228
H           2.03840058992665    0.75951417342598   -3.74378680372718
H           1.91180232187548    1.65974940841152   -2.46364454480327
O          -1.23596545246798   -2.72422660627576    1.30467990089421
H          -1.06945340550306   -3.58929333293960    0.92868687753903
H          -1.35402995693201   -2.11135343411770    0.54316943688744
O          -0.69921267898568    0.96780388462407    2.08985166590071
H          -1.63641452555398    0.54834679898167    2.11506676608716
H          -0.02573642388688    0.15677622645307    2.16345418098964
N           2.39545865165037    1.70770892989492   -0.87695324313869
H           3.30667616890148    1.83589378305124   -0.45588864545310
H           2.06177081492171    0.77041807218616   -0.65806810030177
H           1.74690207675392    2.35106721526989   -0.43945910168889
