    26
        -50.47049654  Gyration_radius:  2.47941039455 Dipole_moment: 2.970
 S          -0.78143528014105    1.14794340123012   -0.17359555375279
O           0.66097270615599    0.97333255423186    0.06992445389544
O          -1.34992880042640    2.18987179600585    0.63506315793652
O          -1.42365788271536   -0.23422396465503    0.27616507252292
O          -1.06707192439784    1.23975733670029   -1.59259468850459
H          -0.33339044477191    0.17292744326500   -2.37283380642767
H          -1.10836171317045   -0.28482504031567    1.21234785857625
O          -0.45224158452848   -2.50537271979525   -1.04546707505817
H          -1.16733472249671   -2.00171614661255   -0.63300031388393
H           0.30969084600959   -2.38390634296277   -0.43739124033370
O           2.55208351725824    0.16711164378309   -1.65490346766318
H           2.92483957761155   -0.52909678213045   -1.10531955365755
H           1.99357062846807    0.69722539570196   -1.05109412987845
O          -0.16687425283424    0.09168739469491    2.52725458064844
H           0.37485689162732    0.69618101356354    2.00094238862538
H          -0.79168724236848    0.66118118992217    3.02267423412268
O           1.43224739342310   -1.52380829769051    0.59250785469219
H           1.24596715699288   -1.65737410864199    1.52516301440104
H           1.16496375084942   -0.59606434187829    0.41157386435413
O          -1.94327723263300    1.97213936309326    3.20505823756845
H          -1.87548239940594    2.13346644443617    2.23946041384058
H          -1.82895729262233    2.82652210915589    3.62414311379724
N           0.26362328907294   -0.63014200645505   -2.76371980063675
H           1.25865546866183   -0.38933184138822   -2.52068986113729
H           0.13082391881568   -0.73347385415872   -3.76350467206703
H          -0.02259438236329   -1.50001163909935   -2.22816407197289
