    26
        -50.45695812  Gyration_radius:  2.43957911987 Dipole_moment: 1.630
 S           0.21485038963532    0.97978517116797    0.96997287196878
O           0.17060961454965    2.29948209589679    0.41299770248760
O           1.40072947469670    0.22475948938181    0.62520234782402
O          -1.02368329718761    0.18641253497813    0.50433052795480
O           0.04648635521835    1.02076155849495    2.47427779881806
H           0.33659405065962    0.06897257062581    2.79902814691375
H          -1.06441859506698    0.17255174796346   -0.54463062670195
O          -0.94011054230382   -2.51988472098655    1.44367124741558
H          -1.53626821878054   -1.78534114817401    1.26932350309860
H          -0.40754424391726   -2.61368975255370    0.61431219074779
O          -0.99671887931639    0.32758990228192   -1.99329811704864
H          -1.43056191789171    1.20148020425305   -2.07764816201200
H          -0.04144932001535    0.51802257820863   -2.15685975889545
O           1.54051423937641    1.10583435682385   -1.90381760102204
H           1.50064441670629    2.06363794552546   -1.84273263580991
H           1.70458441662649    0.79089773538422   -0.99733612761672
O           0.82674098623786   -1.30291492060300    2.92333839102511
H           0.13139468630488   -1.87397501955067    2.47926477086582
H           1.56753550418212   -1.26713579507781    2.30839987460579
O          -1.61726940912840    2.88221359652252   -1.51863345123837
H          -2.38849371561993    3.30552243647694   -1.13897102545683
H          -0.95481531071218    2.82365273361330   -0.80421025907188
N           0.58714560457629   -2.26866205478501   -0.76496677021089
H           1.09323621933087   -1.46123649969801   -0.41182793838165
H           0.01641767522516   -1.95180458935449   -1.53964638584976
H           1.26384983664013   -2.92693216684438   -1.12954053435526
