    26
        -50.46738109  Gyration_radius:  2.51876343655 Dipole_moment: 3.083
 S          -0.61415685861794    0.54330902783270   -0.78160545369404
O          -0.08687174676314    1.37746019382850    0.29906767496879
O          -1.72001223046058   -0.28239815702739   -0.31669340080195
O           0.44755494915573   -0.27155200418008   -1.36689003921447
O          -1.17685145799141    1.46934822426378   -1.88320888005862
H          -0.37995397756139    1.90729106233256   -2.28419712117028
H           0.96399826149738   -1.23014965787097   -0.30619875592255
O          -2.16613714922199   -0.92850419091792    2.26882558517216
H          -2.16929678546444   -0.52601085828990    1.38001002176772
H          -2.33069493345648   -1.86337904438715    2.12293075887317
O          -1.37546319941159   -2.87835819135827   -0.04698874562265
H          -1.57708860928873   -3.31814902559157   -0.87402642053226
H          -1.58264645996180   -1.92357414794104   -0.19582793189842
O           0.94642971180943    2.72463360463451   -2.72028048236095
H           0.77891842480444    3.66931034691718   -2.68725385922382
H           1.58044983639178    2.52496726351127   -1.99554535504687
O           0.40657801368651   -0.18650600660647    2.39197137140343
H          -0.50866688196981   -0.45311856531116    2.62418673556714
H           0.27645394792781    0.54284964394946    1.74980019821357
O           2.25196980229071    2.29185472588991   -0.42540550120102
H           1.41074378020196    1.89256179701477   -0.10304067302699
H           2.47838165013809    2.97694376914943    0.20653819307808
N           1.05384025795324   -1.88757861557689    0.53738269926740
H           0.89249043885686   -1.26388745438408    1.40370486212421
H           1.94817454801787   -2.36395738077013    0.56046607188700
H           0.25185665781748   -2.54340634936944    0.44227845764720
