    26
        -50.46925234  Gyration_radius:  2.40065915015 Dipole_moment: 5.937
 S          -0.50597378090265   -0.73289108258606    0.96492319021630
O           0.93623019544339   -0.52525696308512    1.09258458430222
O          -0.80706686705480   -1.92265024563229    0.18557345169874
O          -1.12961214783091    0.44854641814739    0.35292174040037
O          -1.10090194251296   -0.90942155414316    2.37533752361204
H          -0.64678240711191   -0.20034823333350    2.91936961187161
H          -0.69912105627405    0.48987153158636   -1.13927961035055
O          -2.14849338142544   -1.77274604627080   -2.13076458776926
H          -2.08575264832131   -2.64736084367456   -2.51892423423629
H          -1.82465605675891   -1.86546271173955   -1.20931212924840
O           1.31684741124985   -1.69146356142831   -1.40882823471293
H           1.98975619044713   -1.42416748759978   -0.77639093873318
H           0.57837696159629   -2.00709001830037   -0.84815267783054
O          -0.08962377013367    2.69240822052947    1.37105318874758
H          -0.69229362296644    2.01355353336835    1.01758241149658
H           0.65445470566178    2.67995922573734    0.75361471462692
O           0.42794866547327    0.92761488589973    3.32798021051788
H           0.21058872677781    1.73774237768568    2.81228184871615
H           1.09673617582971    0.47032741653955    2.80076524405432
O           1.72574158227741    1.46710941815134   -0.46067960426565
H           2.66436951250280    1.58240113339433   -0.30475908044393
H           1.44004636813819    0.73132443259742    0.12441277122735
N          -0.39494446686736    0.21748079620099   -2.12499470524159
H          -1.15252158511540   -0.41349815992765   -2.46831926407961
H           0.46458718727341   -0.37831566722503   -2.00294924995832
H          -0.22793995937097    1.03233317514891   -2.70504617471527
