    26
        -50.46227911  Gyration_radius:  2.53191028632 Dipole_moment: 6.940
 S          -1.54308127131839    0.37814806828598    0.58321732647237
O          -1.22048790776573   -0.28372296721568   -0.69192147704922
O          -1.74221569664548    1.78630083667743    0.45649936372035
O          -0.54985260587266   -0.00327137923709    1.59202478521576
O          -2.90752271472853   -0.25901820735696    1.05215720509450
H          -2.69867382706389   -1.19093392015272    1.17509282856242
H           1.22951167314489   -0.28122440469343    1.49511621817535
O           2.01486705236683   -0.68776283489553    1.08446701219745
H           1.24902464815896   -1.65492015518578    0.22760879716430
H           2.37312936171729    0.01067860111684    0.48673553696931
O          -0.65444376646798    3.50692107380715   -1.30677488943446
H          -1.17682705302614    2.95180510595143   -0.69647453852572
H          -0.10846346570854    4.06206987689027   -0.74696754593909
O           2.65832688903182    1.15712649478052   -0.69676827696118
H           3.40502226517803    1.16120430718148   -1.29628878943549
H           1.84536130864932    1.20421008063065   -1.26735773090877
O          -1.29896402697025   -2.44728061755835    1.76370582704060
H          -1.40775539692482   -2.75092836870286    2.66667257614643
H          -0.92821657838677   -1.52761978334573    1.82149699160334
O           0.48718048873555    1.21408557006628   -2.17546248295599
H           0.13786601921272    2.12284357614926   -2.08013787151304
H          -0.18649459919395    0.65831363584173   -1.74794594375071
N           0.46930446312785   -2.19429438280600   -0.31797977767878
H           0.81635782250857   -2.69695062384896   -1.12690750741356
H          -0.23385511272381   -1.43149700453256   -0.59204727603979
H          -0.02909797904939   -2.80428256782639    0.33823963923226
