    26
        -50.46438276  Gyration_radius:  2.63069405461 Dipole_moment: 4.452
 S           0.41659786649921   -0.36683157999051   -0.31769612251555
O           0.75107430127853   -0.12848624658105   -1.81140693571123
O          -0.87241320576524   -1.05172718208744   -0.25211699840672
O           1.46691237619143   -1.17929790459784    0.26511455442925
O           0.33580288116497    0.95043014825446    0.33676291070042
O          -1.94582631857036   -0.79295713131233   -2.66303620518937
H          -1.68744751664834   -0.96515319993899   -1.73370425655650
H          -1.12827359838373   -0.87494324625865   -3.16131430621860
O           3.07350749156375   -0.49375702509630    2.21321589491575
H           2.59989530992135   -0.72158137672854    1.37660672780295
H           3.64325182647878   -1.23973412101955    2.40611856677767
O          -0.57282222083079   -2.06290689365933    2.13582909031415
H          -0.85515722411485   -1.73932449192881    1.24610434709528
H           0.13931624634984   -2.67822037966333    1.94203603858622
O          -2.54720966482832    1.81014752051378   -2.57695327710170
H          -2.90546269650152    2.05221287287550   -3.43227431079031
H          -2.45246885271739    0.82876377606424   -2.58493992896884
O           0.00417523139558    2.28964138991833   -1.96121200182124
H          -0.95264054112024    2.24154980406717   -2.19563183378925
H           0.04315347577776    2.26322928494257   -0.99324454003783
H           0.51168019609616    0.84252533340954   -1.99800902505272
N           0.58046353703978    0.22003698321117    2.79558702236441
H           0.24071895082923    0.80826466453405    3.54831074053754
H           0.06234234802313   -0.70334017209813    2.72199210325408
H           0.44731602602612    0.67101398951016    1.83023817794096
H           1.60351378487704    0.02044516364805    2.86362357743611
