    26
        -50.45378150  Gyration_radius:  2.48840602545 Dipole_moment: 8.907
 S          -0.87626545198213   -0.22905019082674    1.04886453213310
O          -0.70502533593840   -1.58974770795286    0.65143562342057
O          -0.97500459860112    0.71497778020849   -0.04725920292835
O           0.27533863604812    0.22302148168949    1.96881950557958
O          -2.09454892976551   -0.07903412222084    1.94820962859021
H          -2.25836275590739    0.94959839942589    2.00328026810176
H           1.18859211705433    0.06450337972742    1.52742433060009
O           1.16314161337399   -1.06429387243910   -2.79387754249914
H           0.19098586643070   -1.12175523914829   -2.80847028146707
H           1.44552048664524   -1.73069910847560   -2.13783363457318
O           2.46680705531905   -0.07100203192304    0.74260102322484
H           3.17295385077510    0.46671867060509    1.10640776353303
H           2.16290599493328    0.39260236944655   -0.12230317214156
O          -1.49109911934347   -1.13246638988490   -2.04769998619067
H          -1.46099076345380   -1.88098768677915   -1.44440661915801
H          -1.42358848880894   -0.35223572190698   -1.48027230977045
O           1.63772716975915   -2.50578192593398   -0.51609016487601
H           0.77226849822925   -2.39627911449924   -0.09603565195858
H           2.23162583979962   -1.92144430380908   -0.03211621610386
O           1.45838345526920    1.05362587920691   -1.29392983428744
H           0.54391114908827    1.11823976921498   -0.97896929085790
H           1.43653345429690    0.33470115040573   -1.98913065064647
N          -2.24910699411670    2.45297244362005    1.78399381108012
H          -3.14677324466659    2.91092709168108    1.69884870390874
H          -1.79503161411904    2.42252395678707    0.87622476175966
H          -1.67089788027660    2.97036506378942    2.43228459552365
