    26
        -50.45882062  Gyration_radius:  2.54881301648 Dipole_moment: 5.494
 S           0.41347064083569    0.54208341571945    0.81640413133878
O           0.09973782833067    1.62209232177362   -0.12110348280249
O           1.79628806000157    0.53193611732382    1.21672896059999
O           0.09759225653998   -0.79734138070459    0.06883152463046
O          -0.52252108783946    0.53994524494209    1.94268588541192
H          -1.86151864999600    0.47708424544379    1.59792822731497
H           0.84272167499864   -0.94036892341161   -0.63670621150454
O           2.44214490977508    1.51616804826381   -1.36765693784967
H           3.03982066296603    1.52389486232957   -0.61450701455484
H           1.56163877435297    1.70317885610491   -0.98873492966037
O          -2.85275073054216    0.41794252519368    1.17934364299765
H          -2.85448030403668   -0.51874797848968    0.68253465492005
H          -2.82137491922220    1.11366551268035    0.43388944326329
O           1.98059183536983   -1.08927585214683   -1.56427773646176
H           2.67089339076370   -1.40973285124432   -0.95034775721762
H           2.21413675909959   -0.14407584357538   -1.72864711628131
O           3.50193628215424   -1.41524018665154    0.63287342400696
H           2.95369878327491   -0.66206329387482    0.93956510837990
H           3.49056599874994   -2.05890742571753    1.34202373995745
O          -2.36829759249553    2.03750846247573   -0.71822909027798
H          -1.38925846277421    1.89855080324264   -0.59150528611464
H          -2.51217896073810    2.98109705211692   -0.62605045063979
N          -2.58463321859283   -1.76783589303148   -0.09863608992459
H          -1.56942385917385   -1.67954853691926   -0.15671591704639
H          -2.95937863897168   -1.77543277061866   -1.03852169998418
H          -2.80942142281772   -2.64657656124953    0.34883097749797
