    26
        -50.44628974  Gyration_radius:  2.50893025014 Dipole_moment: 8.096
 S           0.51963537390125    0.21500655272352    0.34977005790568
O          -0.50737908314110    1.17514576712010    0.03258021877704
O           0.42225325548672   -1.00900420137652   -0.39928679225563
O           0.46666692790605   -0.12469521469864    1.85292843223245
O           1.88946641212635    0.85120601905853    0.19526760159712
H           2.40118825812838    0.90613888216924    1.10712976120430
H          -0.23951109629912   -0.89609917595380    1.94454840274162
O          -2.77996278771438   -0.33465567529912    0.46812255754031
H          -2.17701846626794    0.42071553441743    0.41147131227892
H          -2.71548190416847   -0.76966291651594   -0.41396338820451
O          -1.28014414348978    1.26870361759086   -2.55336136662590
H          -1.51277212977530    2.15629517319651   -2.82984811093245
H          -1.01761300764594    1.32671097856923   -1.61512101332967
O          -1.92588808140410   -1.36265129140278   -1.84030721853882
H          -1.89822061473103   -0.58386223580150   -2.41237223302151
H          -1.02925741576420   -1.43997914764244   -1.48120153119815
O          -1.24839509641636   -1.92877242705836    1.79800998086635
H          -0.92242900235993   -2.48963964251976    1.08669572584117
H          -1.99082204374623   -1.38202759978801    1.39146866999388
O           1.32433594013252    0.13361798353934   -2.83496143552141
H           0.46271729193219    0.53265254499629   -3.01213955054580
H           1.20862566666780   -0.40203781369047   -2.04476417718970
N           3.05478538908034    0.94164474137471    2.46300601890839
H           3.88763613302588    0.37014824836849    2.51017340766571
H           2.33425092090708    0.54572411768043    3.05440458480836
H           3.27333329363138    1.87937716094315    2.77175010500011
