    26
        -50.46241471  Gyration_radius:  2.40589111193 Dipole_moment: 3.777
 S          -0.19892665245681   -1.70964218458311    0.00370253461772
O          -0.74828657376662   -2.13015244130341   -1.25498629387890
O          -1.07164264071281   -0.78604109555105    0.72061607086516
O           1.13908591621089   -1.09762618444416   -0.15386697076879
O          -0.00150265023254   -2.96675242168936    0.90439517271496
H           0.51318332990883   -2.62103292520713    1.65592438842837
H           1.29366581202496    0.02234283416167   -1.17567561727018
O          -2.19013666964192    1.02615678306653   -0.77977877644405
H          -3.12050937732718    1.08294735326337   -0.55811082237236
H          -1.81323653642495    0.31731759132050   -0.19738448000797
O           1.18934611404589    0.79142758609237   -1.83630747936538
H           0.39151817638108    0.47783434957195   -2.43768965683555
H           0.78768091805873    1.61342713702949   -1.24479640451574
O          -0.90122757436553   -0.09307156987521   -2.91644476763516
H          -1.56263889027323    0.40806666775964   -2.40780451676692
H          -0.88217568687520   -0.97786563251619   -2.48648646147536
O           1.79095324328723   -1.56562206580933    2.31542529162167
H           1.72896463618020   -1.24148594894297    1.39068766859092
H           2.62822685934329   -2.02868200987378    2.38837179576609
O           0.08753654554165    2.49849544634962   -0.41033667024364
H          -0.83641514820602    2.23593295939245   -0.57187443484419
H           0.28473430395269    2.17152448006365    0.52258104349164
N           0.39253797548821    1.33066505620560    1.92548803235570
H          -0.14756608179448    0.50805383574356    1.65020936478200
H          -0.05725594532726    1.73360686364237    2.73790973252392
H           1.30408659696714    1.00017552612259    2.21623225639566
