    26
        -50.45202098  Gyration_radius:  2.47513357634 Dipole_moment: 1.178
 S           0.03324129108993   -0.70284621949385    1.36424800186913
O           0.88977201237107    0.00643600377130    2.25773085492068
O           0.60066406857554   -0.91020775979214    0.04618061527662
O          -1.31907008451084    0.01917070130650    1.20854343171847
O          -0.37770702855698   -2.03967271725195    1.96320198686823
H          -1.14730728251503   -2.40182335950981    1.39593353149706
H          -1.19744332273052    0.97603466878465    0.88418679269934
O          -2.19689313868186   -2.94004104227365    0.44627941878447
H          -2.19562228093185   -3.90019233579581    0.44972492632246
H          -1.87838688047477   -2.66045450453792   -0.45520099914682
O          -0.62871816836801    0.69650240868285   -1.87166361631082
H          -0.94007285660538    1.48710602782032   -1.42099656839394
H          -0.09949559121589    0.21989808958153   -1.21641893455761
O          -1.00431770810410   -2.16059370611978   -1.74638617484874
H          -1.30031649931398   -1.35015717150084   -2.18032707656588
H          -0.23472688542805   -1.88064002511881   -1.22140367876296
O           1.55336115081891    2.37935722897513    1.09505314856644
H           2.02551949906396    2.04380878803773    0.29232283097462
H           1.50454246946230    1.61684970025560    1.69544990524496
O          -0.90761906118164    2.40312764803559    0.42552518027335
H           0.08043413834729    2.49854701253523    0.65664396752491
H          -1.37479290125985    3.03502341485264    0.97550355658848
N           2.50322720422492    1.08641623132095   -1.07095509617255
H           1.98401315914251    1.31655662599897   -1.91021382577642
H           2.15269146301874    0.19334435506659   -0.73647979196416
H           3.47502324376361    0.96844995637096   -1.32648239663044
