    26
        -50.46208859  Gyration_radius:  2.46569144177 Dipole_moment: 8.962
 S           1.16611920987876    0.33732719007464   -0.05765477108407
O           1.10941574648884    0.91788706763976    1.25443231100935
O           0.23535182244618    0.97623496103464   -0.99890257368095
O           0.71096471872478   -1.16052001123416    0.02187257822373
O           2.51077691379231    0.25000988523193   -0.62896234803167
H           2.40219418086313   -0.77158256502506   -1.57397287925124
H          -0.22351553872284   -1.16298405301051    0.44630526261889
O          -2.13152427817551    1.46359706776168   -0.01467785294850
H          -1.22393405429538    1.38664827717124   -0.39607849983081
H          -2.66904520918042    1.90549642910342   -0.67335087025728
O          -0.98706189920825    2.41465965051770    2.37912144683883
H          -1.59528210161972    2.25069704959120    1.64536193270525
H          -0.11224456584819    2.18944039202945    2.03035894095427
O          -1.59420222109850   -1.01940275184226    1.04107390103216
H          -1.32198991951518   -0.81390056080920    1.97525301831460
H          -1.98990458676271   -0.19543961195398    0.70775403284176
O          -0.36135209807059   -0.94312308146329   -2.62903039806413
H          -0.20096907280330   -0.11724583015561   -2.10116404049800
H          -0.96738150542126   -1.46921625469161   -2.10042834844954
O          -0.51875008533134   -0.12088799934183    3.26538763453401
H           0.32841570061262    0.02622009580795    2.82031030171919
H          -0.90295448410171    0.77516394644204    3.30620789062979
N           2.16483044959328   -1.60720797645538   -2.28800508312202
H           1.14023083208868   -1.44919689223727   -2.53855904680674
H           2.26756719936691   -2.48413545218384   -1.78590184704160
H           2.76424485629756   -1.57853897201522   -3.10675069234745
