    26
        -50.45416926  Gyration_radius:  2.49028654394 Dipole_moment: 4.066
 S          -1.13484077710334    0.03789443695056   -0.52906797901901
O          -1.70274862769435    1.15546931516312    0.15347318794933
O          -0.51847699599973   -0.94981542236405    0.33439921446833
O          -0.05704562163553    0.53871488975639   -1.52403037186194
O          -2.14946574165903   -0.64084365335701   -1.42595335313128
H          -1.70463759441287   -1.53326133543251   -1.72521382795206
H           0.48492607777065    1.25397526046915   -1.01636439002434
O           2.04888379929555   -1.60355593376889   -0.22973751766276
H           2.58247265603401   -1.04209185882997    0.33617537062706
H           1.12562876022342   -1.45255359373633    0.03697593738200
O           1.31780824472553   -1.55965154276112   -2.84003889413865
H           1.82976417697151   -1.66208173835977   -2.01552238898723
H           1.00460435541429   -0.64831207788588   -2.83108036065310
O          -0.86660570646417   -2.71730564281166   -1.98040366231783
H          -0.04291862511205   -2.38206742322687   -2.43878642721143
H          -0.58343549182481   -3.01623736411223   -1.11085648454042
O           0.96498100688046    0.62047121076020    2.01087169067162
H           0.44320635270765   -0.07943996231853    1.58700580595528
H           0.31096778502741    1.11082243336972    2.56011642722415
O           1.08199712141480    2.20791949911862   -0.03697973976383
H           0.37347329201894    2.82762963570803    0.15557352865978
H           1.18425480329100    1.64686064849988    0.78977935000781
N          -1.23148459268776    1.89832589627413    2.94773032571746
H          -1.62102144897456    1.73134831031998    2.02127244575804
H          -1.34772103498764    2.88131931627072    3.16110961672541
H          -1.79256616315734    1.37646672627330    3.60955248622046
