    26
        -50.44982157  Gyration_radius:  2.71190330402 Dipole_moment: 4.051
 S           1.79896176170685    0.00170876629038    0.40138975797874
O           1.55462068558935    0.68976242781551   -0.82752596587739
O           1.41362535156176   -1.39288135645179    0.39984961412178
O           1.07726064973339    0.70635905043523    1.56822119611542
O           3.27137503093986    0.12380640412119    0.80361029762095
H           3.34631242606343   -0.47215598434433    1.63642012224614
H           0.08078727551912    0.89268875818284    1.31349025611452
O          -1.93621480941291    0.43011542342662   -2.87878979845624
H          -2.35375103941880    0.55756331608383   -3.73097641257319
H          -2.65923806231184    0.30688083492672   -2.22544671436199
O          -1.02796155925262   -1.25654054445915   -0.68461243790936
H          -0.13872205334469   -1.48440379639023   -0.35375166064377
H          -0.91083451193422   -0.92263814149878   -1.58338786338364
O          -0.54658189119274    2.31922856856287   -1.42917943546617
H           0.34840991490813    1.95085238033514   -1.36015198079557
H          -0.99528584227082    1.76707363600008   -2.09425052918542
O          -3.61514437223365   -0.04852886461464   -0.80693833738019
H          -3.14412960819275   -0.86154856440951   -0.58831765047540
H          -3.37221448476535    0.58884079130400   -0.12602156924771
O          -1.26173184020763    1.00656037401426    0.71490736459451
H          -1.27912833816261    0.13084369994532    0.26194714476106
H          -1.08214275698680    1.66144235116789   -0.01691909905668
N           2.98354738297084   -1.49969277263525    2.76112459259907
H           3.64149676350620   -2.18741338230175    3.10303516609501
H           2.27431334476579   -1.95701359573192    2.19515872838953
H           2.53237057237932   -1.05090976987937    3.54711520420939
