    26
        -50.45905074  Gyration_radius:  2.47511628931 Dipole_moment: 4.569
 S           0.14476044966552    0.95790993412097    1.53451483002555
O          -0.38108960021184    1.45960024441948    0.26867738009408
O           1.53524133278254    1.35393640488337    1.68865444136184
O          -0.06637264528554   -0.47516405786328    1.66851778612202
O          -0.66231183468914    1.65942243485103    2.68396927866581
H          -1.55764354253533    1.28690402608348    2.58913702748368
H           0.99068267402637   -1.42027247754158    0.67088751964768
O           1.38978330853988   -1.91073836776137   -0.07236486357902
H           0.67515120672660   -2.50552047121968   -0.36925823326180
H           1.45169292553486   -0.89216860901776   -1.30409488966851
O          -0.91439403764489   -2.86133116473052   -1.19213672210741
H          -0.83190783028782   -3.13414001561472   -2.10736725912587
H          -1.18864704648137   -1.92362667965853   -1.20803822585200
O          -1.47986880628404   -0.18552978641447   -1.40508846276773
H          -1.08978613827346    0.41344113594275   -0.71841676637801
H          -2.42408947455885   -0.02448945834888   -1.36590188952268
O          -2.62613319095981   -0.05500953658314    2.01516750440065
H          -1.75728014254403   -0.44439717886451    1.78373626518511
H          -3.01416507570963   -0.63950634948089    2.67012057141620
O           1.30463141301783   -0.18301604006137   -2.00215191050151
H           0.34237392330113   -0.11565358755484   -2.07382498950078
H           1.78309636599870    1.04542913725980   -1.32667534464368
N           2.06105172882779    1.95080027942380   -0.76442823032437
H           1.95943661963972    1.70895198932795    0.28018846360838
H           1.35860088215509    2.66140654909819   -0.95481409275782
H           2.99718649524196    2.27276165531749   -0.98900915804522
