    26
        -50.46264177  Gyration_radius:  2.40638826948 Dipole_moment: 3.521
 S           0.09942777809425    0.60834443060996    1.02304054869418
O          -1.32576976775771    0.34894442193944    1.07360127440465
O           0.42465164091840    1.63184617362269    0.02838848731828
O           0.86207958925715   -0.61542415342166    0.74347046784270
O           0.53111211751281    1.11759935312391    2.42204253977098
H           1.50091891305161    1.29614938703653    2.29051438290874
H           1.01401784762911   -0.58362265532252   -0.91084750799590
O          -2.30659899570534   -1.66704202712448   -0.26766856686791
H          -2.08517215955723   -0.92871181387363    0.35104565013653
H          -1.64369394002657   -2.36490583300425   -0.04884177889747
O          -1.86656877510500    1.82364847323505   -1.22167333074105
H          -2.47000130219212    1.68206307802367   -0.48510456326494
H          -0.97994006457880    1.89385638822260   -0.79069576299759
O          -1.56062262630443   -0.46317983781653   -2.29424534307646
H          -1.93993533808592   -1.08440079532114   -1.47277559896958
H          -1.77573646716241    0.49882519948083   -1.98991715024965
O          -0.21764336192953   -3.03812332573163    0.58755225933033
H          -0.24611493291904   -3.42250304494884    1.46497100980808
H           0.26975759658210   -2.19072085915079    0.67389809109145
O           0.94817704188185   -0.31255950319139   -1.85615714268622
H          -0.53743975653882   -0.51494765677942   -2.24120968121196
H           1.06846154005858    0.64365999948764   -1.82582267030723
N           2.91281099477305    1.41976521985530    1.40576977182484
H           3.15686667137462    0.46477373167918    1.17548417001072
H           3.76249590556117    1.95046129607398    1.54868828155987
H           2.40445985074670    1.80620435405973    0.61649216282144
