    26
        -50.47248005  Gyration_radius:  2.4007219501 Dipole_moment: 5.343
 S          -0.25546653008544   -0.83025379611068    0.66855073494344
O          -1.43877578531022   -1.06361776294566    1.46232431713818
O           0.56332152088151    0.27864545904312    1.11676788523324
O          -0.56677965715197   -0.72067558035628   -0.76454264261851
O           0.67290192373938   -2.10507247745376    0.78355763565353
H           0.05827765450251   -2.82894939720872    0.54067032850044
H          -1.49197080918753    0.85403943050254   -0.92356395244946
O          -1.53531432725550   -3.30124865744092    0.01208242144184
H          -1.88150562214830   -2.67520013027598    0.66999243921499
H          -1.64431863336151   -2.86089819157199   -0.83625691465296
O          -1.72364736209815    1.78884266170448   -0.81544872170064
H          -2.08398807966033    1.85464568759305    0.09013196404012
H          -0.21413735273111    2.53149879997338   -0.63505644402614
O           0.75022104952711    2.59243714370427   -0.41241839832589
H           1.29873261468462    1.50525712021296   -1.35578780016723
H           0.83057591317808    2.07436540297008    0.40272818251781
O          -2.13872215562188    1.50175895846715    1.84998974840507
H          -2.02278783696109    0.53532643010940    1.81892405121180
H          -1.39069405312381    1.83580861599015    2.34922998731481
O           2.94436060350105   -0.51013778305112    0.20798009210832
H           2.19050539747448   -0.16795707365866    0.73037651759787
H           2.93665701497571   -1.45774300642307    0.36336996925556
N           1.50775236208851    0.53018953669887   -1.78053147491036
H           2.28874784755546    0.11510030771048   -1.22142874118854
H           1.69814240292685    0.56050545076925   -2.77561898631755
H           0.64791188967984   -0.03666713898897   -1.54602221815889
