    26
        -50.46547343  Gyration_radius:  2.40881794489 Dipole_moment: 4.100
 S          -0.87638449952400    0.31896083681473    0.61574319097492
O          -0.65988991542536    1.60094251153825   -0.05238789144702
O          -0.58628578702781    0.35522199069746    2.02649002503725
O           0.12075223547681   -0.69479482955012   -0.06384309863678
O          -2.18215679246721   -0.23719108092740    0.27292035012972
H          -2.06961845823053   -0.11826455575766   -1.28344242921618
H           1.07083283452113   -0.37168320355874    0.10770282194897
O           1.67843067683236   -0.79825788884728    2.82109696327510
H           0.81616655096420   -0.39404895282122    2.58936615356688
H           1.53105061660949   -1.29846822070473    3.62426729185628
O           0.44375047925217    1.05887323088125   -2.34949561466041
H           0.09636347583608    1.45826155173977   -1.51608470056379
H           1.29646570130112    0.68172722842145   -2.11725456948234
O           2.44842698073510    0.20009460318160    0.42175887633900
H           2.59637229021275   -0.29457431821678    1.24259532259144
H           2.23702807835727    1.11589962339865    0.73070502857005
O          -1.62408389632129   -2.68456784815056   -0.91687147554837
H          -0.71304994822701   -2.81274691950450   -0.63859623931683
H          -1.98860922312307   -2.04561238209562   -0.27976690711616
O           1.37847805938640    2.40573130199921    1.43008996155396
H           0.57614885163416    2.31029161674326    0.88000597236055
H           1.10886265989619    2.12535958902872    2.30908835022783
N          -1.76269105476168   -0.39419229845767   -2.26979189030159
H          -2.46387029895209   -0.16693675300702   -2.96754184009472
H          -1.62873270334065   -1.42390771252416   -2.15981954790839
H          -0.84375692361388    0.10388286968178   -2.45693411413799
