    26
        -50.44735192  Gyration_radius:  2.46119895785 Dipole_moment: 4.323
 S           0.15696028229307   -0.58659029563616    0.96641752717502
O           1.02973627904559   -0.33513868330347    2.07069612345816
O           0.67222658670981   -0.17027788081201   -0.32059789116187
O          -1.18952231756093    0.14893379730394    1.19487010881507
O          -0.27061007899454   -2.03871732503275    0.91774048062179
H          -0.63958297848723   -2.21073927182614   -0.04124309910913
H          -1.07542780262515    1.13840232078339    1.11220442784629
O           1.91092211052890    2.02446748302109    1.16543901109340
H           2.28023305141460    1.75462469384174    0.32039284911693
H           1.77691181924667    1.19865852856064    1.66687574212488
O          -0.91907790023798    1.56398315258795   -1.64192581802474
H          -1.04111632488587    2.24978290702686   -0.97669193475374
H          -0.24026867673160    0.96942166261420   -1.27582423299938
O          -0.62029999006176    2.67384252600095    0.96724060765291
H          -0.87894087651190    3.19541086229106    1.73025752913639
H           0.36812447971318    2.57011849691002    1.01819608349532
O          -0.98288462386551   -2.17091401661783   -1.47703491660680
H          -0.23154812352765   -1.67470091039489   -1.82011137882612
H          -1.77045502718816   -1.57152704445553   -1.57697262123667
O          -2.81137166597896   -0.30992359792207   -1.82296566275285
H          -2.20687062347082    0.46580623510425   -1.76208881930955
H          -3.24944568314913   -0.24992632321589   -2.67375519556638
N           2.74837390039803   -2.22332215183140    0.48265907657788
H           2.14981907978505   -3.04040519170619    0.49604722608308
H           2.31613276371478   -1.54635654907693   -0.13338612485761
H           2.71798235033714   -1.82491341423464    1.41356092201238
