    26
        -50.44735186  Gyration_radius:  2.46137751502 Dipole_moment: 4.319
 S          -0.44155815901942   -1.02092593298081    0.25360746603361
O          -0.06147016133934   -1.97196058565118    1.25130893744814
O           0.65359063380548   -0.25471607931666   -0.30197510323293
O          -1.45924147829706   -0.01805221364846    0.85762356139251
O          -1.24472294249597   -1.67080079940250   -0.85381408247481
H          -1.22605643357320   -1.01475903321576   -1.66296052688843
H          -1.01714617943220    0.58357791185414    1.52213310389520
O           1.80296276508214   -0.42221052330305    2.38478190547165
H           1.22506202263400   -1.16402984238270    2.12572548715334
H           2.37940053859367   -0.27036631198744    1.63116397292662
O          -0.92552981560544    0.04445844055766   -2.64711597066652
H           0.01440001000233    0.17409682107083   -2.47931918857916
H          -1.37267217840542    0.87577399098145   -2.33330541564876
O          -1.76970649951386    2.33293603227938   -1.65896936314426
H          -1.03303912340321    2.46768254138937   -1.01866809409815
H          -1.78041669413850    3.10288096111721   -2.23028219239830
O          -0.08596068188237    1.38613405935684    2.55847090898502
H          -0.45403142482387    1.38170846352223    3.44482956217063
H           0.70945550840672    0.78853417734014    2.58035051478711
O           0.36708636673025    2.41829814202547   -0.06134051968682
H           0.20722402938192    2.50510236064767    0.88450783035902
H           0.61484195294606    1.48608003782398   -0.19523981693939
N           1.46521570180771   -3.06061684224927   -1.09943448806307
H           1.55646450911191   -2.05312439816365   -1.06314858935740
H           1.18610574576206   -3.35711907262958   -0.17187734617617
H           0.68974200771117   -3.26858231511828   -1.71705254322338
