    26
        -50.46690815  Gyration_radius:  2.45045622214 Dipole_moment: 5.036
 S           0.65989494842082   -0.20409414646615    1.07448511782358
O           0.07410341379804    1.00563032939660    0.45214874232232
O           2.01119923350036   -0.41244417978585    0.57309161713641
O          -0.21330684869209   -1.33884798795905    0.85547413856803
O           0.80605965922304    0.07312495831778    2.58586130202536
H          -0.04739943559190   -0.12347966807818    3.06548697124653
H          -0.44992707946375   -1.88348438047674   -0.73836629544248
O          -1.47189799808279   -0.18725411010949    3.79104903709722
H          -1.98798194041378    0.00669772428791    2.96931968047402
H          -1.58912278867656    0.56593946338977    4.37376715910281
O          -1.40402772657966    0.64115414654378   -1.82250939234400
H          -0.98383980459066    0.81495844751062   -0.96072186957548
H          -1.07885019827050    1.32722992408011   -2.40867613586084
O          -0.49206964135647   -1.88342721781099   -1.72138912046297
H          -1.05314920973278   -1.11211215576970   -1.93408663781412
H           0.90655875718420   -1.32601960027882   -2.01978760000414
O          -2.36293251155111    0.41377373260074    1.39269672175374
H          -1.51417322217974    0.76826160212635    1.06670030430584
H          -2.45913869234972   -0.43640189143662    0.95365601900857
O           1.39164623944855    1.84865006038817   -1.69346903294763
H           0.93154423219941    1.61564489675107   -0.85352722789531
H           2.12001190695681    2.41608897347406   -1.43743705162454
N           1.84664249530779   -0.79565945080063   -1.95706688942453
H           1.71609184174567    0.20219273703594   -2.21492008787063
H           2.58763488552015   -1.24125517272082   -2.48559031223536
H           2.05642949405770   -0.75486702439940   -0.90618913737087
