    26
        -50.44735190  Gyration_radius:  2.46118816134 Dipole_moment: 4.321
 S           0.72050925104434   -0.65296653215679    0.59722223774570
O           0.66193739920102   -1.09187227211560    1.95675922841868
O           0.15319549754056    0.65707936770074    0.35817502692081
O          -0.03406208859700   -1.66460170477107   -0.30471601405994
O           2.13207232531309   -0.72294268092392    0.05277803472730
H           2.15400001150545   -0.12678992601443   -0.80136990799071
H          -1.01950894872499   -1.62184771162413   -0.14365505727996
O          -1.75960848327919   -0.06501619256078    2.45157526869400
H          -1.59386041308023    0.86173934393068    2.25941743673235
H          -0.87887106978416   -0.47783462582888    2.52411775922775
O          -0.06675333584492   -0.05526844860247   -3.36353298817922
H          -0.26259469306683    0.39214694752612   -4.18862574621027
H          -0.79984923064935    0.16450956795557   -2.74299145722283
O           1.90183232415218    0.85663034082181   -1.87382686748909
H           1.39605249980865    1.51663995364514   -1.38699916228613
H           1.26075695118046    0.44174249460922   -2.51134006986592
O          -2.53906724861248   -1.38538466472174    0.32621313814303
H          -2.96040419310440   -2.20510029816638    0.59390429034991
H          -2.38661235643734   -0.86146725874259    1.15840795184796
O          -1.81444420839975    0.69089624621331   -1.48903680852446
H          -2.40640478237410    0.01367850819213   -1.14451975043711
H          -1.14621614821424    0.82573485548966   -0.79363753283201
N           2.38603455868232    1.35016752444496    2.28261818691107
H           2.11917191531770    0.53254119731702    2.81780992714854
H           3.17034908050991    1.07567535652727    1.70335444276457
H           1.61234540590769    1.55191063181442    1.66189845265277
