    26
        -50.46652652  Gyration_radius:  2.47647872805 Dipole_moment: 5.855
 S          -0.30762736966480    0.90017016859221    0.56729237648398
O          -1.16698673866971    0.63301236629670   -0.57737499167562
O           1.04516295612974    1.26255645855358    0.12026256981293
O          -0.26880991580681   -0.22197863781259    1.49638190534788
O          -0.82324197934382    2.14818816881924    1.31566576838202
H          -1.72117096869280    1.92810808591281    1.69106838490044
H           0.41681786634609   -1.54774542528356    0.63031851611426
O           3.10278486434462   -0.42995250236038    0.12266710283724
H           2.39881974761864    0.23068263960449    0.29816422932085
H           3.61608195565931   -0.49523519662894    0.92897803560619
O           0.88163833412934   -2.11014486658451   -0.01860621714013
H           0.10992358078429   -1.78519782138821   -1.50956199948238
H           1.79749574962053   -1.79273180268582   -0.00821055862026
O          -2.79895994763015   -0.84889349948962    1.01216015565827
H          -2.70134229997198   -0.48754951113531    0.12168832799173
H          -1.87984823303653   -0.88962030806406    1.33759684317083
O          -3.08501894772706    1.40092508705328    2.33521968597395
H          -2.95455191139310    1.19544796419616    3.26343083100202
H          -3.17938213126401    0.53042091727413    1.86817708632820
O          -0.22871155307056   -1.18867324948381   -2.22195136902992
H          -0.78297648175116   -0.54179579079845   -1.72816391249059
H           0.92472832921624   -0.31069557401698   -2.40196607489751
N           1.73312479646960    0.43657330217024   -2.24502003075506
H           2.60817034796685   -0.03167036091997   -2.01006930470017
H           1.41728527096184    0.94372837584925   -1.36153561473204
H           1.84659469878060    1.07207101233961   -3.02661174540986
