    26
        -50.46296391  Gyration_radius:  2.40751587022 Dipole_moment: 6.020
 S          -1.59446915546348   -0.09538652287420    0.93600911800508
O          -1.72357171045561   -0.81463976987870    2.16463744060216
O          -0.95684917661734   -0.91202204765649   -0.11468910534588
O          -0.63146023572170    1.14100870703291    1.13710676182665
O          -2.81660531713409    0.53920705496428    0.44034266373846
H          -2.37318939695751    1.66581635835484   -0.30352526055495
H           0.28186977148867    0.81228897509243    1.40614342170775
O          -0.14253764361378    0.81734291118101   -1.90916275273034
H          -0.50743669259616    0.09899538430537   -1.33967780259952
H           0.80787151699141    0.81727380994952   -1.70620165888246
O           1.70859354870879    0.18161248756935    1.58562999767447
H           2.08098795625741    0.23703508166917    0.68782555855431
H           1.47317560819577   -0.75891353697777    1.72427091645813
O           0.55631283733399   -2.26623709391678    1.66783946802456
H           0.11921507813737   -2.37512184337457    2.51636795284627
H          -0.13199798126091   -1.86237618898415    1.10405753628716
O           1.24406769768288   -2.30096539874212   -1.08242960446059
H           0.33658599398152   -1.96777055670453   -1.00477348844565
H           1.41437285243105   -2.72482191929533   -0.23328721048164
O           2.39722836168356    0.07662814824650   -1.08719494923503
H           2.03309292489559   -0.84570163983327   -1.15388768162297
H           3.24590118958818    0.06709988725022   -1.53088554397128
N          -1.84762830422960    2.47303001876326   -0.86115311811249
H          -1.08020872049372    1.93452317971004   -1.38536519700468
H          -1.42497966761596    3.08693537545280   -0.17095705532578
H          -2.46834135523151    2.97515914871930   -1.48704037692511
