    26
        -50.47385541  Gyration_radius:  2.44265283984 Dipole_moment: 4.148
 S           0.46173178697032    1.35173107546759    0.44338835011628
O           1.56257311519323    0.47948920331557    0.78888628282649
O          -0.82622339892592    0.73234534956519    0.78758182401463
O           0.46891933239664    1.77281489240899   -0.95070932792970
O           0.59933215582761    2.62527030490168    1.33523922910413
H          -0.04368063315866    3.24499742428285    0.93802395654680
H           0.41478108220733    0.43576803561372   -2.05410928631940
O           0.10018446912287   -0.97811242908913    2.54463924014133
H           1.00198222063859   -0.64543698304830    2.44602753775516
H          -0.42321415148910   -0.30111592525876    2.06187232457066
O          -1.88006192312444   -1.06895330297894   -0.73959047666634
H          -1.51003129446298   -0.32619984530063   -0.18990887639119
H          -2.82750052586820   -0.92759353146617   -0.76515817043651
O           0.29092017452364   -0.44750816901820   -2.45118151862061
H          -0.57809052731092   -0.74033480276179   -2.14606221413686
H           1.48469868070736   -1.30190320201643   -1.57134603250207
O           1.93970279992252   -1.64922113127266   -0.76664012086446
H           0.83220794363453   -2.35850667377093   -0.04624266706902
H           2.03461536936031   -0.85816431384059   -0.19621508797450
O          -0.94022728591878    3.89891640671460   -0.39855787578246
H          -0.53906767472447    3.12718095147354   -0.85038219313805
H          -0.56891120943445    4.67989165494143   -0.81533439945641
N          -0.05787522615175   -2.65968078399946    0.51468074367183
H          -0.10973320157602   -3.66247985491371    0.65042978406625
H          -0.87711856535331   -2.29541446270185   -0.00475540803521
H          -0.00991352302846   -2.12777987723021    1.43542436246984
