    26
        -50.45465448  Gyration_radius:  2.46278824507 Dipole_moment: 5.246
 S           1.74106275337613   -0.03366122859540    1.00112274744777
O           2.99168933049714    0.32375429396616    0.42450373059055
O           0.93683877677512   -0.89348501743453    0.13730948319657
O           0.89798663520950    1.19212536783520    1.36924300371869
O           1.94298381352469   -0.71820286315059    2.35032360494710
H           1.06506456606470   -0.69234365141098    2.87002511784164
H           0.56745838670153    1.70310513621994    0.52406317310830
O          -2.23942950448837    0.84562753998237   -0.93362155096716
H          -1.83347107397555    0.10902247456525   -1.47590997926587
H          -3.01566694617691    1.15101024739655   -1.40425630707673
O          -1.52366971767173   -0.85174958156955    1.19540261319432
H          -1.95909640102782   -0.14072365572217    0.70467454093999
H          -0.66032136179008   -0.96804334686465    0.75674290503756
O           1.70982309922569    0.50221226900890   -2.06263733759374
H           1.50446136511121   -0.14640909045247   -1.36820347840681
H           2.60946073213549    0.77962605095510   -1.86632853905013
O          -0.32048640768023   -0.73812482665592    3.51808582638977
H          -0.46940835361821   -1.59956800146921    3.91520090487192
H          -0.91192694229880   -0.69026686780644    2.72268816001970
O           0.07949029320294    2.21507645893324   -0.76697075669696
H           0.63023869665323    1.72144798158813   -1.41212616361041
H          -0.82285994196726    1.83358203696073   -0.82325846534342
N          -0.92751714237503   -1.05116500997956   -2.25994006065411
H          -1.34180125453209   -1.85506066627379   -2.71455477629412
H          -0.36023833331836   -1.38733552758165   -1.48736317396403
H          -0.29066504755369   -0.61045052244460   -2.91421523237729
