    26
        -50.46438281  Gyration_radius:  2.63076205339 Dipole_moment: 4.453
 S          -0.45429564424572    0.20918729474031    0.39873752737168
O          -0.02566652555386    0.34354641197491   -1.00419724552569
O          -1.81518917753458   -0.28372391729923    0.48704276067132
O           0.46461988956924   -0.65589615505483    1.13494602237723
O          -0.39850243602192    1.61695316307852    1.04292831925373
O          -0.61450661370016   -2.92893945695764    0.43961492773356
H          -0.07555040476962   -2.17064458076980    0.77197153139862
H          -1.45171440757681   -2.83701931475717    0.90214925245182
O           3.45665979538182    2.02418540933477    0.60364850547782
H           3.01835868489687    1.56111475915387    1.35564911918491
H           4.02852989848423    2.68723997577028    0.99325034409965
O           1.98571133099153    0.97251907664255    2.57225757394368
H           1.51547681245051    0.25195134040618    2.10353139503407
H           1.30076724353489    1.61304994810533    2.78195488614697
O          -3.39616113034877   -0.87463405269213   -1.51256342722107
H          -2.89113239944887   -0.50877823320682   -0.74624918108318
H          -4.22153891419422   -1.20287765696568   -1.15289701594685
O           1.18230517217308    2.70411584682991   -0.61437668546314
H           0.95901940916030    1.94890898453760   -1.17916867592945
H           0.20414065420473    2.17386509425464    0.44157184396781
H           2.08328685361752    2.51947925994322   -0.25815356977930
N          -0.96710139938880   -1.86053627026932   -1.95025629489723
H          -0.58332762418259   -2.26900680668629   -2.79518703173657
H          -0.50423292921539   -0.92453023827362   -1.70000052561942
H          -1.98685834618675   -1.64757697645985   -2.02676187100261
H          -0.81309779211907   -2.46195290538146   -1.08944246491910
