    26
        -50.45414032  Gyration_radius:  2.45896130422 Dipole_moment: 5.964
 S          -0.86289806204050    0.47249700311410    1.12722754721737
O           0.01770257549008    0.21923866214000    2.22704248144373
O          -1.67355047995763   -0.65769590813867    0.74072244200480
O          -0.03454750040358    0.92843819497817   -0.10276993522248
O          -1.71984512719556    1.69594630165626    1.39583917530332
H          -2.10142818125788    1.99774189059884    0.47910955069366
H           0.66461111570062    0.20518681225474   -0.32301274229446
O           0.25993274758511   -2.45315689818702    1.16432701897256
H           0.49953652297742   -2.13003034655209    2.03737887663294
H          -0.60274154498826   -2.04242246072733    0.97851833483454
O          -2.42161364124797    2.31225970389228   -0.93640414297503
H          -2.51327189373759    1.40772112513644   -1.36329335858013
H          -1.61725270951709    2.69184990692366   -1.29926532713342
O          -2.36813663210712   -0.12798788554742   -1.81493261418824
H          -1.54725975082780   -0.34780354797540   -2.28966707020839
H          -2.27225361020218   -0.52132501682219   -0.93180187627937
O           1.66076352291068   -0.91050807088744   -0.46992758811563
H           2.32231206636277   -0.55858989660377    0.18442077704464
H           1.21552090882985   -1.64755793802489    0.01530534139337
O           0.15765127812762   -0.65757824634049   -2.84759321103950
H           0.62843254968680   -0.03824373028177   -3.40702045940640
H           0.76644169670699   -0.91283706296602   -2.14100268780353
N           2.87143495444762    0.15017913970021    1.64548559533022
H           1.94532337428817    0.27462814381329    2.05484805630778
H           3.30625334991152    1.06260899747188    1.59155962969327
H           3.41888246026013   -0.41255888261779    2.28490622643596
