    26
        -50.46452133  Gyration_radius:  2.52819251836 Dipole_moment: 7.106
 S           0.07649980379167   -0.75617990603779   -0.24464379754759
O          -0.22202048009100   -1.23346691799004   -1.57263748359101
O          -0.82948405868094   -1.28884055647099    0.77538543155954
O           1.46332487894772   -0.91117369149567    0.15819634757812
O          -0.15059040789864    0.81004141128612   -0.23532318639324
O          -2.95360101133874   -1.33396151048709   -0.80268599855466
H          -2.56482055163672   -1.76005295107016   -1.57226056747468
H          -2.27181835457975   -1.41419767431679   -0.10611959795993
O           3.33580180905834    0.83232318203102    0.64304388268697
H           4.14906447948624    0.35829913839559    0.82255648187167
H           2.70291126636130    0.16285376993423    0.28397260850275
O           0.67095024949744   -1.14086395311178    2.85488933440130
H           1.42008177609235   -1.66041529212432    2.55004431957818
H          -0.01404446067029   -1.27896884244184    2.14512511399324
O          -1.08543812516694    0.32770336908157   -3.52972968838759
H          -0.73586601813309   -0.33299174745202   -2.89290796720342
H          -0.32084670190714    0.71105127032877   -3.96095506929225
O          -2.36099767491114    1.18639186481215   -1.33287035347809
H          -2.08009061191869    1.08051299995942   -2.26541056329423
H          -2.80582358746222    0.33062430883331   -1.11032809732304
H          -1.08418035831706    1.01161095193520   -0.66748954551859
N           1.13145923035232    1.29290538945154    2.03946951359696
H           2.11784333641405    1.30851072367146    1.68420972962480
H           0.96623159018897    0.34316605478950    2.52089878086633
H           0.91244820989447    2.08445126149917    2.63514016225951
H           0.53300578263039    1.27066734699406    1.18043019949806
