    26
        -50.45942135  Gyration_radius:  2.43911339012 Dipole_moment: 2.705
 S          -1.42819870525989   -0.76462950777011   -1.43050738780356
O          -2.13168056065276    0.49910304623145   -1.37440320312175
O          -1.23673975851895   -1.38486711533175   -0.13813427750572
O          -0.17622841849823   -0.64805631561346   -2.17716772054673
O          -2.34488567141178   -1.75358871686402   -2.25989258104067
H          -2.55616391263271   -1.23645134137242   -3.02999015598715
H           1.13917028953247   -0.95461754204575   -1.56842907448046
O           1.00688463403361   -2.13941889575995    1.03351256638621
H           1.10770758550038   -1.41966588134582    1.68585087367990
H           0.09094064371803   -2.04956786747507    0.69399460115316
O          -0.11671284067968    2.14521751968758   -1.06644630381082
H           0.13456210559486    2.41132328554894   -1.95285399405232
H          -0.88778123455779    1.54450573187270   -1.18306950726327
O           1.99807143100921   -1.06938619555866   -1.00651213340606
H           2.16559003624673   -0.10531295363352   -0.60412377688695
H           1.69351581508990   -1.63367258887396   -0.17154467824402
O           1.08969109620626    0.21849197216170    2.41769913824164
H           1.23198053179438    0.45301226439080    3.33476939896832
H           0.14440765635944    0.49102961958534    2.18134103239609
O           2.09775482686636    1.17848657421619    0.09047725303371
H           1.85451448786874    0.93577115715187    1.00546033496395
H           1.30331886398873    1.61398206529655   -0.29423796392753
N          -1.31009334622403    0.88324410805551    1.60504151162115
H          -2.11742230458983    0.97575503051863    2.20873651133995
H          -1.48540702140130    0.09791768546676    0.97801513027244
H          -1.26679624938113    1.71139484146211    1.02241440602239
