    26
        -50.44600363  Gyration_radius:  2.57227684157 Dipole_moment: 9.113
 S          -1.08294022962700    0.47081240977947   -0.38739249723125
O          -1.18028167743448   -0.95981411540222   -0.37840067675033
O          -0.40308745973300    1.03513856698230   -1.53019291390702
O          -0.39132176283598    0.95409047906856    0.89000381752560
O          -2.48053501655214    1.07822754445165   -0.26168549820255
H          -2.33142167583809    2.08905978628995   -0.41424377150051
H           0.57480227791012    0.46620920669378    1.05162504172013
O           2.58819178249438   -2.90856226305940   -0.96096916393051
H           1.99862283720932   -3.12368815035065   -0.23206796533969
H           2.33669203557979   -2.02797505999516   -1.26193326804573
O           0.50610411021768   -2.56072564026428    1.07586980313938
H          -0.06360620490959   -2.26503177293360    0.34660427747553
H          -0.07644529530386   -2.54301568548201    1.84984588255014
O           1.74983331280831   -0.24598397147501    1.14462668012076
H           1.43161613233523   -1.18651645688365    1.23238574330227
H           2.12515588664176   -0.18652511415253    0.24508175318844
O           1.98575952169618   -0.12198354615802   -1.53149846741073
H           2.53364217206337    0.17357005093969   -2.26103218552581
H           1.10197294723513    0.28107359333645   -1.65259125091358
O          -1.62508138377545   -1.30298731696674    2.34712991281127
H          -1.77450107159617   -1.22817736213631    1.39457803028083
H          -1.39996284878696   -0.41977413877445    2.64754142028912
N          -1.68882382827019    3.44974922955272   -0.75854453604721
H          -1.28128231521467    3.92134409449703    0.03777994804134
H          -2.20649176955786    4.11885384075718   -1.31275253284241
H          -0.94661048677087    3.04263180167811   -1.31976758279814
