    26
        -50.44881377  Gyration_radius:  2.40688526681 Dipole_moment: 5.654
 S          -0.47095305455898    0.70798038333293   -0.67496930553907
O          -0.28695178717187    0.93539595797302   -2.06525967390403
O           0.58976033250151    1.25096001420517    0.16479763578675
O          -0.56278318852762   -0.80126461430626   -0.35636161576675
O          -1.80379225032042    1.24757348202848   -0.18556760154143
H          -1.74399070967758    1.32763181531819    0.84092780718559
H           0.35936362668127   -1.26397113626265   -0.55289909944140
O          -1.36451948896821    1.36454787787154    2.28877348238490
H          -0.53825385086969    1.85633807944239    2.28262136446814
H          -1.13315956673675    0.42387593948493    2.51066280171097
O          -0.51059740873844   -1.12368895521977    2.46347929966595
H          -0.78330643146061   -1.42797132310251    1.59002956182921
H           0.45562551550281   -1.04664020121000    2.42683564260602
O           2.44073239772497    0.62178484975035   -1.76742909956815
H           1.95281179304394    1.10636392198474   -1.08519480853289
H           1.93234552830610    0.75840830285755   -2.57305060362232
O           2.04236137850306   -0.36463931916483    1.69265609519583
H           2.82752732793187    0.06530637383076    2.03563164504693
H           1.55428231761365    0.30830989466366    1.16996720096941
O           1.74626992554982   -1.69836823173043   -0.68311474688647
H           2.07904920304557   -1.55885010864536    0.22037219560145
H           2.15472204531479   -0.98008353258464   -1.22393096268221
N          -2.88801760007518   -0.53986760115905   -2.34241774267569
H          -3.43052394123735    0.10588958574977   -1.78108903710975
H          -2.08457522816768   -0.02354225800238   -2.68063410419733
H          -2.53342690519378   -1.25147919712354   -1.71483633096115
