    26
        -50.47202827  Gyration_radius:  2.47723505289 Dipole_moment: 4.467
 S          -0.06724370617348   -1.10837834947100    1.05573616086369
O           0.34314822025178   -1.78720187403911   -0.15091361180778
O          -1.20771872060307   -0.21049048649694    0.80482608234976
O           1.01586048107307   -0.36605435186264    1.69406548114877
O          -0.56146140602568   -2.19826911146559    2.05410474726032
H          -0.63010863493216   -1.71950606065909    2.90476928072403
H           1.90339387803852    0.81012408175543    0.77413629088840
O          -0.13381494924761   -0.50370042450909    4.03779129538329
H           0.48115897655275   -0.79535267486759    4.71476650047560
H           0.40861783818512   -0.22282478240814    3.27176438296093
O          -1.88003083831326   -1.25737705541508   -1.54594545685013
H          -1.96760442550806   -0.84930982805051   -0.66463732273130
H          -1.13468153085848   -1.86170123987616   -1.41116072693276
O           2.10070181040287    1.44003314213265    0.05139121953735
H           2.24575177272449    0.86286848964441   -0.73496427914344
H           0.68658757306485    1.88903760579930   -0.24476704723842
O           1.74451793782297   -0.29484111565765   -1.91966331657265
H           1.00916577535894    0.03469414672333   -2.45352844447963
H           1.35860067655735   -0.96441998574225   -1.32484340051348
O          -0.77296513813035    0.72248139783430   -2.84771636078055
H          -1.23859696140621   -0.05632907636247   -2.42748373530147
H          -1.17599833172329    0.84830669568141   -3.70734145988068
N          -0.38471874959503    1.92992417793252   -0.44077156058745
H          -0.79671904271542    1.13677414023120    0.13515896893650
H          -0.55322227742147    1.69919371709998   -1.43809405621770
H          -0.79262023738326    2.82231882204550   -0.18667964148944
