    26
        -50.44910410  Gyration_radius:  2.46682229921 Dipole_moment: 5.847
 S           0.18498359235740    0.85379221567777    0.41100877028254
O           0.77915496610351    1.73666104687930   -0.55420325576380
O           1.15007606761628    0.06481221877995    1.14632065021625
O          -0.79932464551824   -0.10719468601895   -0.26195890435255
O          -0.67890210789881    1.64681667609570    1.37580546083128
H          -1.52579203672401    1.08285666501653    1.63286320222815
H          -0.33657776015177   -0.66689122752900   -1.04392932867834
O           2.63477138005116   -1.41497943948004   -0.48739889633069
H           3.15541257372880   -2.03956241598696    0.02033492387844
H           2.20735946395174   -0.81676353482031    0.15913245115093
O          -1.82259131852545    2.61184820840778   -1.02222314274319
H          -0.87452989510789    2.43948629558894   -1.03212649985691
H          -1.98668843680795    3.14357231688145   -0.24085919784439
O           0.43820341772639   -1.35165765596987   -2.02100444738133
H           0.71909344532240   -0.61168106390349   -2.61282479561550
H           1.25784057338310   -1.59935696018536   -1.54531061085734
O          -2.60671171497509    0.13097087501015    1.83792904991883
H          -2.89043111773345   -0.01888910795132    0.93016317806012
H          -2.03795376903111   -0.65715850135270    2.09176438424212
O           1.50982550163316    0.85504175928188   -3.00655367937122
H           1.24648372767788    1.34212620812272   -2.20507162847796
H           2.46717107296328    0.79457164160859   -2.97729860881654
N          -0.78080076420721   -1.71616092292278    2.33542047532362
H          -0.60348422404794   -2.00453193667606    3.28921479365866
H           0.00776860671388   -1.15116489338677    2.02313510113562
H          -0.81435657860229   -2.54656378141442    1.75767056544512
