    26
        -50.46570691  Gyration_radius:  2.62392599942 Dipole_moment: 5.296
 S           0.47091521209975   -0.33464056021100   -0.40263239091743
O           0.93994828841960    0.42983352737943   -1.55421756271438
O           0.70175242644357   -1.75630084741480   -0.49814996160290
O           1.28140683586202    0.22442043765044    0.81442268807913
O          -0.93658525427136   -0.00368858492649   -0.12565051063351
O          -0.57033958510396   -2.66355594373002    3.03454491857824
H          -0.67875697027153   -3.55475856597734    3.37008306912956
H          -1.05823233128392   -2.63203190430702    2.17603170098759
O          -0.58745802154580    1.70929168673423   -3.29569848033675
H           0.00121160628515    2.15262369869778   -3.90927042168867
H          -0.02173680602943    1.08943555347193   -2.78234713223025
O           1.40515689567452    2.73708849081467   -0.35798323832338
H           1.43187841909607    1.90861747498872   -0.88744399864588
H           1.71586953762973    2.46775449042836    0.51091270621676
O          -1.60676219985414   -2.53444153200615    0.58331414666520
H          -0.77030794648899   -2.54518077433245    0.08371219334758
H          -1.89729551284483   -1.62013501823701    0.47111134057124
O           1.78473804615328   -1.99267236318318    1.94897495357579
H           1.53809465196271   -0.57607243805585    1.37497691312226
H           0.99151804083925   -2.21342120491094    2.49046500689673
H           1.61262886410580   -2.36489148493621    1.07061663313304
N          -1.18177247698459    2.45180879406538   -0.81239804997777
H          -1.96139343750819    2.99824202284738   -0.46480884308905
H          -0.23979980814441    2.82194869922450   -0.52049371053185
H          -1.19631408343724    1.42802198220755   -0.46183947365142
H          -1.16836438080632    2.37270435373756   -1.85623252595109
