    26
        -50.46652629  Gyration_radius:  2.47681634471 Dipole_moment: 5.843
 S          -0.12642895534452    0.96409302828559    0.52831563524709
O           1.26603269936944    0.61583494587723    0.84623223996240
O          -1.05333287712173    0.00888836108554    1.12180895937677
O          -0.30606622014316    1.07789232632861   -0.91205098663170
O          -0.34668147529465    2.34457169243093    1.18335853673910
H          -1.30045730447414    2.60050154611258    1.04005610245011
H           0.05224582244404   -0.19549272337135   -1.96185614840077
O           2.06912061068417   -1.84800425091093    1.46417457765767
H           2.01609229624700   -2.10855831777107    2.38460897057339
H           1.74122452951194   -0.92420487124227    1.42125779614736
O          -0.24692335787649   -2.27464186361090   -0.02860159856508
H           0.56971908861491   -2.42942253448237    0.47034351078325
H          -0.67835737154664   -1.52688063111247    0.42748872844522
O           0.43517863406672   -1.05237827477439   -2.25942767901468
H           1.76782951381873   -0.83688982672017   -1.70121899786577
H           0.07048810201792   -1.70036312840100   -1.60732889597759
O          -2.97064979423439    0.63551628062094   -0.59763918011374
H          -2.29498666511825    0.85657360213265   -1.25138051757662
H          -2.46331452329633    0.18286162348212    0.10261211611970
O          -2.87048571819412    2.82453337813715    0.84834530337674
H          -3.33405203992829    2.63885117630360    1.66778451520570
H          -3.08443577953420    2.07661162809489    0.23202952184674
N           2.61592611934909   -0.55522618484779   -1.03946776294406
H           2.15334244892235    0.08430782476083   -0.32220109112651
H           3.36909200768829   -0.08906262667383   -1.53244556944796
H           2.94988020919444   -1.36991217972933   -0.52479805625105
