    26
        -50.46570669  Gyration_radius:  2.62457140542 Dipole_moment: 5.294
 S           0.50975047636353   -0.18040263005597    0.44562924189282
O           1.87096435671344   -0.54722046650410    0.13569352400392
O          -0.44302921738333   -0.59023119393082   -0.59940943210038
O           0.04303121543102   -0.64603189458487    1.74799031178313
O           0.41331639490895    1.38076274442970    0.51238242201343
O           2.12869369374381    1.40113426656780   -3.18890953736097
H           1.85238564461111    0.46698079481864   -3.02460352630547
H           2.86716469123476    1.35760667254935   -3.79820070609583
O          -1.82383654150933   -2.47360618510796    2.17056398950440
H          -1.94415803047658   -2.53382146546754    3.12005487681407
H          -1.00489285794039   -1.94515691619696    2.03767703186699
O           1.47849760113468   -1.07431690077631   -2.44775727381960
H           1.88369368290179   -1.05836687674383   -1.56208684168330
H           0.53577295476604   -1.04832482388965   -2.23809188243081
O          -1.75976389980757    1.22122005849097    2.23237623321241
H          -1.36629935721333    2.00464421914508    1.83804807776832
H          -1.02230951253461    0.57086153689765    2.25565471489985
O           2.62899998597559    1.91933980926483   -0.60878650627551
H           2.86025976230496    1.01269022952931   -0.35527427932539
H           2.46049487445166    1.88863184809399   -1.57920655128836
H           1.25126613622928    1.73574371387500    0.07346261964115
N          -2.73192613219134   -0.56985894420294    0.55114723039485
H          -2.66616821156838   -1.42596923473275    1.15028660287732
H          -3.57734391685191   -0.53893256321280   -0.00700584784706
H          -2.61232526536542    0.26044572526536    1.18805445356732
H          -1.83223851792457   -0.58782152354143   -0.04968893571062
