    26
        -50.44440611  Gyration_radius:  2.59409704208 Dipole_moment: 4.166
 S           0.24479213248501   -1.21682732267594    0.54389048727171
O          -0.97471623574866   -0.78640310156118   -0.07760436208119
O           1.12206334963092   -0.17591756461262    0.97808108986459
O           0.99921425443648   -2.16540910509283   -0.40980508178415
O          -0.08442642421274   -2.13526077874508    1.74369581499579
H          -0.53015975320079   -2.92571705721832    1.35233513172866
H           1.70681339891200   -1.55025159493395   -0.92487730828092
O          -0.83199451880822   -4.10339331156154    0.20531447535839
H          -0.40128438550104   -4.94781776949024    0.36443794906525
H          -0.31561279892501   -3.64343317876058   -0.47008067130840
O           0.25994749476477    0.66196079393122   -2.09441894932044
H          -0.36478920578834    0.21558651224390   -1.50589738513544
H           0.25990673762099    1.60973089574871   -1.82121125382165
O           2.46758548529759   -0.48122966488483   -1.46015767515507
H           2.69784233810040    0.00623186994259   -0.66070241086077
H           1.69052238819834    0.02234286423938   -1.86691757027379
O           0.37650797858262    3.13443266658601   -1.10343536146256
H           1.15153041748159    3.68163307384388   -1.23455923709268
H           0.32657370042210    2.95161427536211   -0.12913788830150
O           0.26592196674906    2.43476632238872    1.44177525995788
H          -0.69620087379046    2.24519437627201    1.49760114527454
H           0.68728255508631    1.56410395851497    1.41617088366685
N          -2.30429792243669    1.54277339857243    1.16076488874399
H          -1.98733163430674    0.68454153319439    0.71654364154531
H          -2.79389646046547    2.08467828845361    0.45923573442913
H          -2.97179397461847    1.29206961025041    1.87895864300166
