    26
        -50.46516757  Gyration_radius:  2.53874357301 Dipole_moment: 5.799
 S           0.34300102684927   -0.51461986849736    0.05567782529848
O          -0.26402863769015    0.02616785291068   -1.15719345666202
O           1.76841420669482   -0.15254643837039    0.11708975184665
O          -0.27056688718569    0.26997706932924    1.25890212369942
O           0.10209025911705   -1.92409016617009    0.22688826333019
O           2.68638528711171    0.79965344210212   -2.23858170896491
H           2.61187335685497    0.12821260576202   -2.91837598718835
H           2.44952104822485    0.35862508127525   -1.39858617649648
O          -1.35852790991793   -2.95768997288525    2.19329864567052
H          -0.77789385289968   -2.69153867975114    1.44984928087823
H          -0.77631384950506   -3.16833169352157    2.92417130955868
O          -2.47064313516115   -1.45165574870396   -0.98075419900016
H          -2.08436369033601   -2.32377332282514   -0.86147281886761
H          -1.71857349251685   -0.87032970620089   -1.20352312752354
O           0.57457985094420    2.41478384149295   -1.84855054997698
H           0.05167320953123    1.58903689650068   -1.72036746034129
H           1.01197600588161    2.56184758762110   -0.42905697966257
H           1.39986455662513    2.08176441161103   -2.25676099424425
O          -2.59253468178861   -0.65062059536997    1.55241142861663
H          -2.37596021017738   -1.50420108250662    1.97782963955920
H          -1.23951538857398   -0.06159413004710    1.40798650655039
H          -2.79473567403689   -0.88551514045996    0.61634385903701
N           1.36107330919642    2.33601526814347    0.59087136956770
H           0.57844377874742    2.33959229065279    1.24308005708482
H           2.11436355749857    2.94393393180026    0.89613729398925
H           1.67039794651084    1.30689624610759    0.50268613424878
