    26
        -50.45130103  Gyration_radius:  2.55551482144 Dipole_moment: 0.910
 S          -0.49387406668217    1.13196322308945   -0.10208160534986
O          -0.97488718541445   -0.23623245407173   -0.13666405955557
O           0.63152764027914    1.38884409251081   -0.94506753657682
O          -0.16061724277740    1.48762144481572    1.35207475481229
O          -1.63489550186833    2.07281034912646   -0.47185843625605
H          -2.42241254415114    1.97237416636405    0.17542267166385
H           0.87930376022384    1.36000644165972    1.45984102706940
O           2.27135834140015    0.99197918420381    1.28883823293942
H           2.11256218112909    0.00949068540521    1.14821046128776
H           2.44322525544897    1.35199379318206    0.41142711034675
O           0.17686911364092   -0.66934398700690   -2.70328210885559
H          -0.50650313074019   -0.96086564082588   -2.09184781415346
H           0.47574179928324    0.17726610065996   -2.34226526108355
O           1.44072098346780   -1.37447426376725    0.67283068434949
H           0.53873797556365   -1.17218344971710    0.39188494683532
H           1.89811299999330   -1.71608833458733   -0.14205712834964
O          -2.26491558805608   -0.37139810956545    2.20478261523561
H          -1.58861066227052   -0.07434397063798    2.81872936962617
H          -1.80610009728829   -0.53255560874388    1.35901475545765
O          -3.55039493752419    1.65489749130274    1.13985917008670
H          -3.17660061614985    0.90597006414460    1.67458287094740
H          -4.30875170544490    1.30347091651269    0.66709467305092
N           2.46481398795332   -2.13254111639918   -1.68974192802340
H           3.34793130323039   -1.73955115833851   -1.98911161996835
H           1.72694888054606   -1.70620732591062   -2.25330306929036
H           2.48070902620117   -3.12290253339611   -1.89731277626800
