    26
        -50.45679363  Gyration_radius:  2.50421335293 Dipole_moment: 3.967
 S          -1.55657465013043    0.52123292018531   -0.45904414296447
O          -0.84801317635831   -0.64882655708879   -0.96489520888522
O          -1.75617772999932    1.53812867700701   -1.45062112406786
O          -0.84708142951113    1.03604330892417    0.73706780390846
O          -2.95931977764734    0.05182721031354    0.04271403566378
H          -2.76660092354649   -0.43452588010703    0.86316923972915
H           0.63396483258792    1.22366809036640    0.55497428103397
O           1.63350817814194    1.19798315189888    0.32439491292405
H           1.64212461888015    0.83772877795771   -0.69891616961408
H           2.02985912637463    0.40796458391028    0.88011136560661
O           1.41013589247455    0.23680960222261   -1.94873009699761
H           0.58361234070389   -0.25444584727438   -1.72662077593224
H           1.10943135088392    0.94846531632174   -2.56244487793943
O           0.13603263374847    2.18751798682354   -3.18703757448034
H          -0.66002087027260    1.96552526668422   -2.65717889170914
H           0.28138122880059    3.12697357992542   -3.06344098109814
O          -1.88217781402725   -0.68373592128283    2.38666948105420
H          -1.34127091659428    0.01100437409351    1.94786469470278
H          -2.29036190533038   -0.27087778139594    3.15042128712121
O           2.47260963671791   -0.87609192253960    1.49052308396166
H           1.64006792730768   -1.45762518290212    1.38819601106912
H           3.15573736904630   -1.28192866524514    0.95336858808463
N           0.29863346719577   -2.24508528254755    1.06508274725533
H           0.35573500765745   -3.23152583208458    0.84585576736214
H          -0.11646034363203   -1.77120020683755    0.25901167490959
H          -0.35877406346040   -2.13500376721519    1.82950487924251
