    26
        -50.45520853  Gyration_radius:  2.5485847281 Dipole_moment: 5.885
 S          -0.04152200120413    1.01589234081645    1.27948380175710
O           0.18220110538612    2.40248974430043    0.98266525285936
O           1.05430134137113    0.15229586412203    0.82717606410909
O          -1.32009650479842    0.50711063341630    0.53647034099918
O          -0.34556386152262    0.74518884762648    2.69526292472756
H          -0.97353061551526   -0.47254824829824    2.62977818671409
H          -1.33819901366997    0.85592149250608   -0.44339937932156
O           1.75921286070846   -1.20332574688333   -1.36908218030658
H           1.60088958915513   -0.54292659535277   -0.66743208845576
H           1.66841046606535   -2.05726686648084   -0.93928053294268
O          -1.30554233462372    1.29222321708789   -1.84316444338167
H          -0.57302326856971    1.94866237316477   -1.86096925165694
H          -0.98497205738598    0.52478344108328   -2.37181385320679
O          -0.12678558055471   -0.69297160487719   -3.19522282591080
H           0.32453762920110   -0.32296455843618   -3.95585027347071
H           0.58086863264496   -0.92458708446000   -2.55151314842852
O           0.96762906720584   -2.32045657400590    1.54395162424301
H           1.05780221064292   -1.36928479963109    1.24842276843058
H           1.67183211669159   -2.45763713545628    2.17983112965938
O           0.76011204356028    2.95558061025885   -1.52114552961414
H           0.68339301107387    2.76890879274072   -0.55834538411022
H           0.62559162432778    3.90067889582335   -1.61184842608835
N          -1.41491101648676   -1.48077275432399    2.33648816965835
H          -0.57464249738596   -2.05713759957089    2.07776100920076
H          -1.95004028277628   -1.25979576190042    1.49610903495017
H          -1.98795266354926   -1.90806094326555    3.05566699960238
