    26
        -50.45679367  Gyration_radius:  2.50427276312 Dipole_moment: 3.961
 S          -1.54992551139412   -0.55694491845334   -0.43500590847524
O          -0.29051136271453   -1.27200097560464   -0.60656896574708
O          -2.16859522649022   -0.18899724041706   -1.67561678650568
O          -1.32499558467836    0.61324945574196    0.44777745387300
O          -2.53191731346943   -1.49469985018152    0.33699491940315
H          -2.18504094107402   -1.50433324074771    1.24616485917065
H          -0.15698951432468    1.47608706921350    0.05769260164934
O           1.23651119967018    0.28147976073548   -2.05840243793057
H           0.77793959552217   -0.46397163060583   -1.60272258092216
H           0.66042526177828    0.47985842378449   -2.83444520921610
O          -0.76153561711511    0.73512401268384   -3.72108272714593
H          -1.36310717410910    0.32013386284366   -3.06561806827867
H          -1.14540426562667    1.58891019907780   -3.92771284638518
O           0.72136054000499    1.90343372421029   -0.25687120223455
H           1.42485273442966    1.67413307143545    0.47976663244591
H           1.00711894943490    1.28763840750547   -1.10268100954585
O          -1.43905348891090   -0.73499250426567    2.66552654324515
H          -1.30877554957233   -0.05084484250428    1.97065092367263
H          -2.06862253289051   -0.37203770122613    3.29183471329019
O           2.42304541213013    1.09884189301338    1.42304054468884
H           2.03430147655932    0.17255659440440    1.60406663200549
H           3.26069350996697    0.95975942459850    0.97699876124441
N           1.34296229709146   -1.25458131177343    1.69837005407386
H           0.81197932942096   -1.36562270638130    0.83096524288608
H           0.66313877429481   -1.26023535135415    2.45099273869564
H           1.93014500217103   -2.07194363560386    1.80588512200933
