    26
        -50.45360741  Gyration_radius:  2.62057660185 Dipole_moment: 5.719
 S          -0.94545711753337    0.84754235713432    0.59989051557108
O           0.34177971423220    0.46861979212435    1.12949243759698
O          -1.89360893018010   -0.22553085518055    0.46699838063442
O          -0.75604522445851    1.53775668092596   -0.75217059340239
O          -1.53173200709943    1.96004248128964    1.47143034550975
H          -2.49893603400425    2.05893852815717    1.12193869380395
H          -0.19286443796301    0.92088124910086   -1.43221261644269
O           0.62091629185422    0.02062805595194   -2.14192673958926
H           0.29175185104578   -0.85995131714425   -1.78237013262372
H           1.48872963955226    0.17674361634377   -1.73046675388623
O          -0.33547967606485   -2.02504078629764   -0.88450172181606
H           0.24340313863049   -2.28904092803500   -0.13109289137201
H          -1.08574185433658   -1.58386170311928   -0.45856560676117
O           3.67135003287094   -1.77784798575306    0.29454168500084
H           3.75363140102234   -2.27903141423146   -0.51859195927107
H           3.41348535655862   -0.87435775667019    0.04326818876095
O           2.55334495874398    0.67320439659090   -0.31522183166856
H           2.96801753739385    1.52034682312690   -0.14497180446516
H           1.78366750729681    0.61410002838374    0.29406977526619
O           1.15461597406823   -2.22742238003952    1.31709004279795
H           2.10714697979351   -2.18771034922805    1.11261403623324
H           0.89162050816653   -1.32741918764458    1.54978825073193
N          -3.82573845653012    1.81807022024798    0.36669955651527
H          -4.71002050987884    1.89853039872410    0.85090256344918
H          -3.62144864773017    0.83769134322542    0.19142470061493
H          -3.88638798554615    2.30411869220764   -0.51805652124004
