    26
        -50.45515246  Gyration_radius:  2.50105737542 Dipole_moment: 5.427
 S          -0.05798813541079   -0.40832526788045    1.31818317053317
O          -1.13067846080430   -0.38064303022504    0.31088040095931
O          -0.56038782439908   -0.39217597865760    2.66057885696338
O           0.77464970611097    0.91408060204205    1.07425818369119
O           0.88076682760528   -1.48223419029971    1.00708131437481
H           1.63263093774686   -1.12271834053873   -0.19472225556824
H           0.37571785966915    1.55740400678570    1.72543431669105
O           1.95007661220711   -1.05779405587282   -1.18723072447314
H           1.15698472106129   -0.48586092740681   -1.64583994216375
H           1.77558083897209   -2.03173723450692   -1.47339479672721
O           0.02077047260151    2.61257347612318   -1.09641104237366
H           0.66963538283535    2.40322470599381   -0.41494155408962
H          -0.83454451792836    2.62990331290619   -0.63525728760690
O          -0.06414488729727    0.12574776311038   -2.00648123651881
H          -0.59605829849733   -0.14516396380324   -1.21681130759144
H           0.01349822301470    1.10663288054763   -1.90687216294680
O          -2.21336573730196    1.98009018425161    0.46563112086102
H          -1.88112396215919    1.04879331019802    0.41962852949140
H          -3.13645402006134    1.95003571794591    0.20979922763768
O          -0.66017896470940    2.25040176054487    2.72953088289119
H          -1.38817523271687    2.42367915065140    2.11127887024177
H          -0.81422387057832    1.35732796434056    3.08773477246362
N           1.15299156168605   -3.49257785828483   -1.40703401281432
H           0.34953417037862   -3.63664141878972   -2.00570662562377
H           0.82545486565608   -3.42465811098539   -0.44715254080477
H           1.75903174234351   -4.29936446818514   -1.48216414748860
