    26
        -50.45669805  Gyration_radius:  2.430976881 Dipole_moment: 4.023
 S          -1.56653685078231    0.12180136457291    0.46076040447389
O          -1.89518683704673    0.21792904589022    1.84737745567052
O          -0.73451661448861   -1.02662974234287    0.14397024608952
O          -0.86287700946009    1.38608070220258   -0.03974944065889
O          -2.82986413168569    0.08254924882884   -0.38971643216886
H          -2.48134934663565    0.09073634261965   -1.34684085681376
H           0.13624077467537    1.44761382310967    0.33018494727773
O           1.87374026301217   -0.99498998649622   -0.38463561516262
H           2.23471570927094   -1.64740464889673    0.22165552971245
H           0.90266288633473   -1.10195921128255   -0.32565950571451
O           0.55367812874583   -2.28258298417954    2.14243668277497
H          -0.01399257968539   -2.86191890231658    2.65276024062201
H           0.00245241293232   -1.92854836351896    1.41766984665755
O          -1.83069622292113    0.26029585411039   -2.71499611304148
H          -2.20371641985211    1.05749491333899   -3.09819693291117
H          -0.84064433030644    0.42252422408054   -2.63958967456123
O           0.56079458950726    0.30841199957876    3.03961699635237
H          -0.38992104788561    0.39879501069598    2.86220905747205
H           0.74805289212534   -0.64067787770961    2.92125175451359
O           1.45904520686301    1.36580378831907    0.82819581059510
H           1.26980217995244    1.08354502636252    1.76469744224483
H           1.81987838836436    0.56923759435897    0.37836042313289
N           0.76192706633087    0.84641563568624   -2.56648681789979
H           0.81089871839910    1.65057437858310   -1.95189688193646
H           1.23508677324418    1.07817848810599   -3.43127793044516
H           1.28032539067755    0.09672427670720   -2.12210066603759
