    26
        -50.46381820  Gyration_radius:  2.44147133069 Dipole_moment: 5.815
 S          -0.46474592105643   -1.39649517006021   -1.07831277264910
O          -1.67119425875902   -2.12369704174350   -1.39968506727236
O          -0.28229513053993   -1.24199984333635    0.36508403815636
O          -0.72934586279284    0.12002313123966   -1.59224410337481
O           0.73639357750622   -1.80824378369848   -1.74589847922078
H           1.69405821730019   -0.50935383908728   -1.52033340899383
H          -1.67615850790086    0.23818004925896   -1.40726020510821
O          -1.75218865822864    0.57982703828095    1.51078246361648
H          -2.55477256357384    0.53137604904113    0.97641226951219
H          -1.24582149480424   -0.22316141604868    1.24378479360557
O           1.71242477367816   -1.32270250737696    2.10589880701944
H           1.25256197525675   -1.44162045207133    2.93829799974658
H           1.03162264733446   -1.41397565573874    1.40674191244084
O           2.26161819996673    0.29127302449101   -1.43201402552374
H           2.93723395894721    0.19305874268982   -2.10476107368267
H           2.73569132825063    0.72475756628508    0.23208886492638
O           2.53457060810656    1.01462586761274    1.14330129095120
H           2.35141870121254    0.17714839923050    1.62725641110191
H           1.19175175522845    1.57564105102889    0.77015091328281
O          -3.24444306069423   -0.22406773520411   -0.73580145350488
H          -4.05881294279385   -0.24954218832729   -1.24196703279308
H          -2.79388236981908   -1.09576737372648   -0.89972299196526
N           0.23695866179907    1.86651146336987    0.32277211430776
H           0.19996084719613    2.86684357677765    0.16096725635887
H          -0.56841940170678    1.52772111617203    0.92072069582514
H           0.16581492090596    1.34363991092635   -0.56625918675563
