    26
        -50.47001034  Gyration_radius:  2.46291897454 Dipole_moment: 2.600
 S           1.41718907844978    0.08614352049674    1.70210839892852
O           0.09704230926285   -0.55799547127892    1.75256122031228
O           1.38633179794872    1.47863775710039    2.07490731169904
O           2.07826032673296   -0.18127611155524    0.44641752740063
O           2.24854369441561   -0.65433422836036    2.84174715169077
H           2.90208608034991    0.00299849957904    3.05554718897489
H           1.92912028644825   -0.89225505792474   -1.10596348735028
O          -1.99246144263962    0.93798033942366    1.19578077946287
H          -2.43990838670524    1.20823343252968    1.99846692792848
H          -1.22515103479656    0.38548519298074    1.47857925536951
O           1.47333187437697   -1.27553877824625   -1.88295031284517
H           0.33063211369418   -1.90436883339265   -1.02963124909786
H           0.99834581914934   -0.51992155464399   -2.27404364088579
O          -0.13353279379613    0.89838157489236   -2.35309715144812
H          -0.06479704233851    1.54295279607238   -3.05830939257119
H           0.05214647229091    1.39513805522017   -1.51162579940467
O           0.07554614684329    2.23311095333596   -0.10945603992016
H          -0.79249218738782    2.05581324122972    0.28503794194195
H           0.70981123898704    2.05236792539661    0.60931583219707
O          -2.30119749899935   -0.36698570685801   -1.22659000047717
H          -2.40812386547274    0.16165603635599   -0.41848013561832
H          -1.66689143021896    0.12587373921626   -1.77967222508445
N          -0.47819867516977   -2.05964142628143   -0.33992719701101
H          -1.31967876448917   -1.53534255163636   -0.72028857050254
H          -0.20299169088022   -1.57553177913884    0.55464729967536
H          -0.67296238603389   -3.04158154451333   -0.18508162336241
