    26
        -50.44744121  Gyration_radius:  2.4383883755 Dipole_moment: 0.750
 S          -1.59377224528498   -0.28825606455471   -0.33617370671508
O          -1.03704232962827    0.90534066717740    0.25696860042550
O          -2.59406569108080   -0.94310094046969    0.43752528104372
O          -0.42762165359240   -1.27807927139520   -0.60559129714218
O          -2.09981135907647    0.03839655449735   -1.73868882141749
H          -1.29826821446169    0.43916349702939   -2.23208492812747
H          -0.43076519181329   -1.92731823539112    0.21233120342538
O          -0.05665526862771    1.06203349144938   -2.81533737974322
H           0.24524624820293    1.77183581860849   -2.17606846762581
H          -0.22362760444391    1.50271760605986   -3.65135528042957
O           0.52590776585236    2.85507822519310   -1.00580139087539
H          -0.25486991878279    2.65276239891002   -0.47402167401702
H           1.26199235085941    2.47302921640876   -0.49142737173601
O           2.31426065457671   -1.05345450165760   -1.07420200120761
H           1.36092610907411   -1.14825966057070   -1.20861938291692
H           2.62849201924068   -1.89398697209320   -0.73670525049199
O          -0.63595492498231   -2.60659376731668    1.49239690936310
H          -0.35877376381216   -1.85914992898211    2.10884358499622
H          -1.60059825941418   -2.58844879516538    1.49229926470034
O           1.71130388275429    1.01839049087725    0.64721109919226
H           0.75424479124304    0.88491806272286    0.56820811604728
H           2.11667947770922    0.36345042306370    0.05365554626783
N          -0.10155634613653   -0.36420931931957    2.76015175904945
H           0.84049509062238   -0.02436404362881    2.59265600700198
H          -0.32350831935689   -0.19614916551627    3.73338264580819
H          -0.72265728960441    0.20425421408010    2.19044695514023
