    26
        -50.46594276  Gyration_radius:  2.44185949081 Dipole_moment: 4.198
 S           0.13028516177542    1.40298560221580   -0.58287866213094
O          -0.99157928015191    1.67805897545794   -1.44138477090928
O           1.06626887915565    0.44159205500021   -1.17274208658846
O          -0.41152302786423    0.71892231579686    0.73538138804555
O           0.81976101472877    2.58425373495601   -0.07735730178503
H           1.41839664623794    2.11345751556925    1.15697953844632
H          -1.05169903721587   -0.01430198320720    0.47376475370409
O           0.55732736585877   -2.45513145787854    0.92263069545571
H           0.50790423431122   -2.57405877504050   -0.03574128709727
H          -0.31427572954579   -2.14309391234346    1.18456221346300
O          -1.97463248068367   -1.17753865362756   -0.00533862496729
H          -2.67063493263590   -0.67687915065514   -0.48200943269068
H          -1.42401852178179   -1.56760080928010   -0.71426086866240
O          -0.04933467748002   -1.82657113243944   -1.77657473684347
H           0.40850862973074   -0.96112195254301   -1.61962579664049
H          -0.18033357260497   -1.88839743913305   -2.72362848068143
O           2.46981672094667   -0.55941803927423    0.79861660455934
H           1.88817728579064   -1.32311819264855    1.00437617121439
H           2.10924511025347   -0.21182407306068   -0.05039536320692
O          -3.35834642228966    0.51062298566770   -1.52908878740232
H          -2.50244160803406    0.98478169185994   -1.62112157519308
H          -3.99931630745940    1.17576865797385   -1.27456226921114
N           1.80923558090567    1.59102995349024    2.03877445087715
H           2.15563828066789    0.63409407401330    1.63152651730398
H           1.03223779348079    1.43108433140727    2.67294144568869
H           2.55533289390443    2.11240367770960    2.48715628522966
