    26
        -50.46901293  Gyration_radius:  2.46594312409 Dipole_moment: 2.317
 S          -1.08783933821583   -1.05661844988534   -0.36087098919833
O          -0.76340747268637   -0.66870658771593    1.01860194823532
O          -0.41531570098769   -2.27731011585116   -0.74166873352897
O          -0.84660775312316    0.03642006102156   -1.28449301514121
O          -2.63785576739123   -1.34461938381777   -0.37966274277946
H          -3.03330373697163   -0.51337669002932   -0.09614862804613
H           0.20754197985061    1.21761936920902   -0.75618480541601
O           1.45468068517380   -2.02654996349956    1.31994434351818
H           1.18626687374794   -2.73000910831731    0.71764037983189
H           0.62782792383411   -1.50922966527268    1.43437296063365
O           0.90086272514918    1.78115644185094   -0.34870131229803
H           1.99280932755829    0.66457888594203   -0.16557710585742
H           0.43388075478398    2.26986706760138    0.35575076268164
O           1.34685381292217   -1.23808672186702   -2.41320491731258
H           0.73481976809007   -1.81066617748178   -1.90176131077658
H           0.77920146462135   -0.51000071853828   -2.69085470534453
O          -2.70883098429422    0.98316291950009    1.23232678111603
H          -3.12452682565084    0.89274635902118    2.09287060804505
H          -1.91210818875671    0.39486893070243    1.24973860995574
O          -0.92365177696951    3.09564275112798    1.19883249319188
H          -1.61263084461862    2.40513446541170    1.20296489609044
H          -1.23919782814270    3.78665888803852    0.61365639689603
N           2.56269110531025   -0.23022735114726   -0.28305798996909
H           3.55951099145358   -0.04844363676087   -0.25570121395836
H           2.25516118631699   -0.63527934778197   -1.21375010972994
H           2.26316760900332   -0.92873223145725    0.45493743915829
