    26
        -50.46901292  Gyration_radius:  2.46587982251 Dipole_moment: 2.313
 S          -1.53668983378659   -0.05427267553751   -0.25331725062395
O          -0.92589230828350    0.70342683238845    0.84737195823935
O          -2.01670467757566   -1.34266493848034    0.19060782437500
O          -0.63987730747511   -0.14370370708314   -1.39077692644376
O          -2.78946699317392    0.78329769550231   -0.71679492129457
H          -2.41918177952896    1.63398726618467   -0.97553004089538
H           0.97953440794585    0.09040213931646   -1.06274308844578
O           1.75917086651419    2.89123535118946   -0.64701919769299
H           0.78811766830686    2.97376047175015   -0.60525871910260
H           2.01130498633918    3.13471017920499   -1.53957490561578
O           1.89194825879656    0.16530524444211   -0.70740824579400
H           1.81346365439570   -1.02776073382015    0.31403225905602
H           1.99490785256331    1.11370467082910   -0.49990700000308
O          -0.99373960709176    2.94763598225106   -0.38440789015209
H          -1.27188701177607    3.64415206944176    0.21478964026750
H          -0.89249317679724    2.13321144437168    0.17019181178295
O          -0.41771120204361   -1.27820867533472    2.48125087628410
H          -1.16411730255418   -1.80815934939821    2.17841128254517
H          -0.58060161189768   -0.40815210770777    2.05604665642218
O          -0.20004148575498   -2.85531149565191   -0.98852892788752
H          -0.06490315484474   -2.25762038077199   -1.73282697468572
H          -0.99284593022975   -2.48012257170415   -0.54721245995396
N           1.52508367890960   -1.93247652205186    0.80140514540060
H           0.86650834857255   -1.69967658728913    1.59785189256528
H           2.32900803087557   -2.46547690011731    1.11294538976939
H           0.94710561959300   -2.46122271192177    0.08640180188250
