    26
        -50.46240658  Gyration_radius:  2.4068450794 Dipole_moment: 7.418
 S          -0.72124958454977    0.61630399921372   -0.12873655885734
O           0.49449793190468   -0.33448595825792   -0.37154972488483
O          -1.90824381623790   -0.23284916002814   -0.16646273034963
O          -0.55621630614504    1.28695050446770    1.14073248495884
O          -0.66738601188432    1.52417563190640   -1.27696206103839
O          -1.35146481264023   -1.98104772559802   -2.00074930920632
H          -1.71674018564748   -1.35859355790377   -1.31907877269528
H          -0.89690898695792   -2.66292603647677   -1.50002209267433
O           1.72598934670383    2.44069823828609    0.17019856830503
H           0.87126053338705    2.11059104545243    0.48338815658127
H           1.51618787149065    3.01583132151633   -0.56693306289048
O          -1.62823857371555   -1.14549473440051    2.33117912933158
H          -1.88948896423021   -0.87176470631820    1.43121475234977
H          -1.63150921097391   -0.33639432746023    2.84885866889118
O           1.61930108611705    0.83577059669133    2.73078600125836
H           2.26537894495121    1.30483326373297    2.19404084816386
H           0.76030297765349    1.11385225035446    2.37060966256456
O           0.95167944327639   -1.56173805188187    1.76732634503745
H           1.36941296507201   -0.82441662678102    2.26859905959084
H           0.02938778912419   -1.61184676389616    2.10685348942515
H           0.72710622508071   -0.87615570882449    0.48734288799360
N           0.14542792106264   -0.09442926114975   -3.04424414186741
H          -0.00516639536786    0.14767394637028   -4.01853218078330
H          -0.20948258910911    0.69590667526620   -2.35491394895549
H          -0.42289945149678   -0.95009881123021   -2.74326880975605
H           1.12906185312261   -0.25034603308583   -2.83967668049750
