    26
        -50.44133722  Gyration_radius:  2.66574006609 Dipole_moment: 5.382
 S           0.90405595587221    0.36508826728987    1.32995422897144
O           0.40700392147131    1.60239066510030    0.80685160990967
O           1.19683839523796   -0.64589069660268    0.36445831625288
O          -0.12949907152518   -0.15461902675230    2.36915112418063
O           2.15345365044728    0.58588674651707    2.20099619412142
H           1.85671338162042    1.10239533304493    2.99080391680368
H          -1.05649842211967    0.05254804716626    1.95261927837488
O          -1.26478039853745   -0.96234419109713   -0.84391789503282
H          -1.19949621231247   -1.43777645964071   -1.71927143434442
H          -0.38488858859333   -1.06137502707869   -0.45138946530007
O          -2.20078268905491    0.50521045642094    1.11944824514997
H          -1.89410589748053    1.36737762080085    0.81405988816202
H          -2.11486019893358   -0.10015070838892    0.34745429025908
O           1.63611494646316   -0.37527717822968   -2.48011713672822
H           1.07658184236636    0.42254147181568   -2.47545534202490
H           1.75607963684483   -0.59995134109324   -1.55039249117467
O           0.91840538774081    1.52359906752763    4.29220269613942
H           1.22551417970025    1.18696785980251    5.13834764988551
H           0.17921857730861    0.96883482906412    4.00828560692964
O          -0.32964413070006    1.47391743215693   -1.85874064182161
H          -0.86740226552681    0.68645453014143   -1.67413241663132
H           0.01560594937821    1.75532499825615   -1.00057781065504
N          -0.62254457444804   -2.01759638640948   -3.19635272324819
H          -1.08713921575638   -1.67424422223894   -4.02731236883977
H          -0.46564113507926   -3.01025566954404   -3.31418464353749
H           0.29169698561928   -1.55905638799580   -3.14278866577034
