    26
        -50.46047519  Gyration_radius:  2.45934578854 Dipole_moment: 5.675
 S           0.19592313742952    1.18925757070408    1.33269883155209
O          -1.00271408753832    1.60229379237395    2.00407483511246
O           0.04221798651078    1.29333080745436   -0.13993541598746
O           0.57888183321018   -0.19515266597780    1.65525177387868
O           1.35764454679000    2.11801391488510    1.75032951549652
H           2.22116577039198    1.71378552640873    1.45231820943844
H          -0.59908632155932   -0.99460923541157    1.27984776013196
O           3.54498679096861    1.10752877158379    0.76520039348412
H           3.95074433346423    1.77983778330933    0.21358457503788
H           3.11928465074196    0.46213984203504    0.14877724520774
O           2.02004443296029   -0.33720940744584   -0.83878888703894
H           1.28771509916717    0.28012404794234   -0.63234844047308
H           1.75905161834294   -1.17705233063657   -0.45278744543069
O          -0.93674831057364    0.04941892830033   -2.41950684861428
H          -1.85223305926240    0.28210331904450   -2.23954913631994
H          -0.41219253683126    0.60481394121019   -1.82147945930219
O          -2.56280219945715    0.82917120510099   -0.05410469456495
H          -2.86694028920833    1.31890710824491    0.71706870441278
H          -1.63473193954027    1.14257856398238   -0.15326423195323
O          -0.45115416847690   -2.38087602017190   -1.44524779711743
H          -0.53001804752611   -1.50398001088103   -1.89434470281221
H          -0.51659930082285   -3.04395567273039   -2.13273524709573
N          -1.48806400534423   -1.45486752856739    0.84541852313139
H          -1.97009568582599   -2.03189169319217    1.52528656788253
H          -1.17202618390986   -2.00436555944451    0.01833518913473
H          -2.08225408262360   -0.64934499767837    0.51590018268994
