    26
        -50.46277931  Gyration_radius:  2.44199642218 Dipole_moment: 2.176
 S           0.20632978983839    0.94709152129006    0.89769261100509
O          -1.15555848610734    1.37007182192106    0.59496737018487
O           1.09349091757876    1.14683158389955   -0.24889380962661
O           0.24259800620099   -0.44029395422577    1.33976788721755
O           0.76529849159026    1.84600736511399    2.03363019141669
H           0.13914244253849    1.64580948221356    2.77427850669783
H          -0.25274954562139   -1.57820434147352    0.30298762927928
O           1.20814053211092   -1.70188374254901   -2.14153907675252
H           2.00106375676297   -1.40676396926351   -1.56620676614465
H           0.81430380312647   -0.79838478957372   -2.50958243675494
O          -2.12415026699136   -0.00904190371008   -1.35026931887531
H          -3.04256205226546    0.23344729221106   -1.47663544863061
H          -1.79201373852967    0.54948910927261   -0.59195961260443
O          -0.59630057484032   -2.09936712103312   -0.47035709928727
H          -1.32348266762579   -1.55781855517758   -0.82651923495900
H           0.45907987008471   -2.00704926448694   -1.44015995369879
O           2.95273033930850   -0.62753262635150   -0.62691219075210
H           2.30060446540045    0.05564263776428   -0.32641847255350
H           3.68120416130112   -0.14538187984260   -1.02325341501731
O           0.19436666183697    0.53849173773097   -2.65072484975688
H          -0.74950190098789    0.40182389397499   -2.44773439848896
H           0.55667919923692    0.96431210791247   -1.83996997536889
N          -1.19336882376950    0.84162867895547    3.42561775399620
H          -1.67465930848110    0.75819274305842    4.31240710421715
H          -0.85914248928059   -0.07263243117636    3.13887885816993
H          -1.85154257238017    1.14551460359025    2.71690815708311
