    26
        -50.45465444  Gyration_radius:  2.46299935992 Dipole_moment: 5.242
 S          -0.95122737431015    1.51322613262460   -0.91777329820413
O          -1.06444197060641    1.63509592358116   -2.33077012600689
O           0.39230227343343    1.14422821342676   -0.48077276943386
O          -1.93638635005567    0.49081787069955   -0.34057121056790
O          -1.37042078360907    2.80829600752325   -0.22732603845436
H          -1.56805468846988    2.61208920492927    0.75443870539547
H          -1.69604730699774   -0.48190334003281   -0.62414011695604
O          -1.13518634153786   -1.78892589410711   -1.00505683809926
H          -0.65347589131899   -2.06153035195310   -0.19484733004863
H          -0.45167945407944   -1.54162938544487   -1.66450085537744
O           0.40259104771719   -2.25532871455004    1.16313407218419
H           0.62898654592964   -3.12653441476345    1.49035461886494
H           1.22327712160631   -1.87596061884421    0.73425244100776
O           0.66973145397345   -0.55450103381504   -2.58302949743018
H           0.72665032822991    0.13471537959481   -1.89959844205399
H           0.17363306566935   -0.13937317200856   -3.29465152614398
O          -1.70412358940941    2.26156661667571    2.23797435006776
H          -1.10895792161489    1.47062543745506    2.30903484340589
H          -1.30559285835858    2.94964308984087    2.77616242733754
O           0.12240946949525    0.39261727180517    2.07590974556779
H           0.00293133172306   -0.56513084340620    2.00887828431169
H           0.33571683548545    0.68333882441544    1.16963233757799
N           2.42018612197096   -1.09572830835711   -0.12643537780979
H           3.38505226626532   -1.06561799616836    0.17822990066200
H           2.05921353859357   -0.14634471413803   -0.11434209877502
H           2.40291313027368   -1.39775118497513   -1.09418620101849
