    26
        -50.45755026  Gyration_radius:  2.53667283432 Dipole_moment: 10.388
 S          -0.91771264618550    0.52263268708475    0.41142992400209
O          -0.99542210684065   -0.07475762568410   -0.91854514525374
O          -0.25369155260330    1.79431772962360    0.42899024949306
O          -0.08484734190222   -0.49855664824345    1.29010113671824
O          -2.22834250587145    0.51837073291975    1.07125856676640
H          -2.43397811482752   -0.82233174871563    1.33791466404178
H           0.86067993249282   -0.43904206197291    0.98075111716984
O           2.38069680692083   -0.27173607432985    0.51597150057604
H           2.48118153614059    0.73410876350897    0.60750264384461
H           3.02624118510896   -0.65878614479394    1.10966795954229
O           1.51983373108917    2.75065374881782   -1.69263946510776
H           0.66900683785477    2.75700082477860   -1.23819473150056
H           1.58945380731088    1.85173701724091   -2.07229608892289
O          -1.97625382983311   -2.46165140220650   -1.06721360205265
H          -2.60043720552093   -2.46337146661297   -1.79501569512043
H          -1.52579587694271   -1.57533320561373   -1.10382077256723
O           2.40264895949859    2.28455302329156    0.77468225132407
H           1.46454788828562    2.32988653780387    1.01795660765954
H           2.38826667546322    2.59984317811148   -0.15858937144508
O           1.41955288185666    0.06797222893444   -2.14013599049513
H           0.49912011517634    0.00831617195709   -1.82978274190259
H           1.95790789385492   -0.23799083387194   -1.40057022420022
N          -2.43769752427697   -1.94509757403499    1.46575329884796
H          -2.36606105003806   -2.32333195864613    0.47854492873252
H          -3.25806447173646   -2.28366501374778    1.95747040231449
H          -1.58083401445222   -2.16374088572693    1.96880857764157
