    26
        -50.44805199  Gyration_radius:  2.67156489877 Dipole_moment: 6.564
 S           0.33042180847219    1.56655696211118    0.33048423578873
O           0.56893476611383    1.23268471782943   -1.03400776023416
O           1.15987863659709    0.88664579520308    1.29594731582491
O          -1.15658320231975    1.29923863341040    0.69691519903865
O           0.42696266346276    3.07864789979351    0.53924101658928
H           0.40653627674969    3.19568975886518    1.56108185594803
H          -1.39982471495743    0.32676901906270    0.56785784428329
O           1.22541602893023   -2.50664774237219   -1.89799365081263
H           1.19140854718245   -2.20220902624026   -0.96322989847918
H           2.06458220699550   -2.95651692793065   -1.99762641629583
O          -1.57846740329654   -1.99854409092818   -1.98793015736658
H          -0.86250340868608   -2.64611462874349   -1.96142392190128
H          -1.19182946399968   -1.26963151772307   -2.53576843739848
O           0.03041866218271   -0.31133547979402   -3.21792873295846
H           0.68802993891444   -0.99625227342632   -3.02339131054046
H           0.20339224441790    0.38672283093519   -2.56894419006554
O          -1.78090651236556   -1.16980442523953    0.42396660351682
H          -1.71636603280225   -1.47062519569201   -0.54850092772338
H          -2.70019413093773   -1.28883893617871    0.67036826019636
O           0.97236563426345   -1.74878530232059    0.67105035522955
H           1.22818026492829   -0.83982670280581    0.89977027435763
H           0.01679874791626   -1.78316698955431    0.80285656600640
N           0.44250463682372    2.91886663738739    3.09238873529437
H           1.05191363287480    3.46970181298877    3.68202682053488
H           0.84026098907933    1.99179327550883    2.96519636413484
H          -0.46133081650770    2.83498191583844    3.53759397702980
