    26
        -50.44821901  Gyration_radius:  2.49258081893 Dipole_moment: 3.159
 S          -0.36401089200107    0.83798933371809    0.67580927670934
O           0.84453049301006    1.11475206202405    1.40224662128299
O          -1.55923304786713    0.76719675135045    1.45185046994322
O          -0.16208658612837   -0.50793360972138   -0.08909304501746
O          -0.49492442699407    1.84668249732890   -0.46478313569825
H          -1.27184654017504    1.55875570311374   -1.10025121274328
H           0.34333860974049   -1.09379391022069    0.57599122738745
O           1.46084033659104    1.19776068150139   -2.46873015010177
H           2.10971145051322    0.80805252731848   -1.85422565597058
H           0.95927999469484    1.82060542702761   -1.93195613797691
O          -2.19061572962480    1.07986747695282   -2.13353662294694
H          -2.29790745325003    1.74325753805711   -2.81981324074709
H          -1.61887191985019    0.34933727651429   -2.52948081812083
O          -0.42759350339394   -0.63602752921953   -2.92245895856323
H          -0.33149356094978   -1.12242112584006   -2.09714440047856
H           0.33564497419937   -0.01074820622917   -2.93701803095091
O           1.06661189398948   -1.61691305178143    1.81701919876230
H           1.43898279916206   -0.78282121331367    2.12931434798315
H           0.26013180823206   -1.76914447054062    2.39364509160645
O           2.76727579658407    0.23330432597490   -0.27987435391663
H           2.82580571145828   -0.68638804316247   -0.01226149405647
H           2.19157550827495    0.67670254686198    0.36795979941672
N          -1.22120804725272   -1.53857694737227    3.12492429576164
H          -1.50827647813915   -0.69143650825479    2.63177724044619
H          -1.22972634184564   -1.33297109920380    4.11638579769547
H          -1.92593485892918   -2.24508843294972    2.95370389029979
