    26
        -50.46240661  Gyration_radius:  2.40701320494 Dipole_moment: 7.408
 S          -0.68989110002445   -0.25581788139751    0.61201989069056
O           0.55450793650790    0.43190854389554   -0.03574222064419
O          -0.20084346172147   -1.50088907876090    1.19683482099480
O          -1.10083726957580    0.70196391699164    1.64132953882500
O          -1.69599547936839   -0.47379006717291   -0.40219806462797
O           2.15422544743396   -0.87330936982939    2.08666489064895
H           2.70902858031414   -1.03018463431919    1.31858476435518
H           1.26488430844025   -1.24104266582277    1.84339959604608
O          -1.30526989519954    0.27383251191495   -3.00055352873037
H          -1.38476782045053    1.22370214194920   -2.87030208305751
H          -1.64305067504060   -0.11092352522482   -2.17422753014515
O          -0.17114813113362   -2.85260455353772   -1.11019744195531
H          -1.08369815757864   -2.78430688948006   -1.40211119806810
H          -0.17145715880176   -2.51260331624967   -0.19507367057385
O          -1.84228745403388    2.23385414095226   -0.76188772501169
H          -2.16587369709217    2.65603635407005    0.03509258494808
H          -1.86113163157932    1.28490859650136   -0.57006991268111
O           1.03464537406045   -0.73231008962088   -2.20435414389872
H           0.73568695056401   -1.63596369523982   -1.95424891609790
H           0.29593248384406   -0.35620300315258   -2.73573607546163
H           0.80348821536893   -0.01680950064130   -0.94252520303276
N           1.17636483468022    1.54791908650136    2.34971533636150
H           1.25811843089113    1.99873413750416    3.25553530555952
H           1.48824188952097    2.15335711975488    1.59479737835839
H           1.70653534999213    0.61888500457074    2.30564168609338
H           0.13459211000958    1.25165670595244    2.11961190110708
