    26
        -50.47217986  Gyration_radius:  2.38250218901 Dipole_moment: 4.488
 S           1.44345647418105    0.04300789320161   -0.09482635101272
O           0.24410458300881    0.32815717937383   -0.89568590627515
O           2.06502153021267    1.38413182868584    0.32947051986112
O           1.03348333626068   -0.67270647568163    1.13457002741045
O           2.42066793225620   -0.70157553167231   -0.84420116806352
O          -1.05971843045667    0.40163824727089    2.23764651436701
H          -0.99252809987808    0.32242974307768    3.19042280345004
H          -0.24087608500075   -0.01704816345539    1.86501765796978
O          -0.55844534729322    2.83332735914020   -1.26579769948519
H           0.08598531941019    3.28549330766627   -1.81236494271844
H          -0.28949634981343    1.89080519825076   -1.24517026632990
O           0.82941177997811   -2.15493143926332   -2.30152472263552
H           0.33234315014810   -1.46936134347770   -2.75590646679653
H           1.57080732164960   -1.67248518804770   -1.85876259664726
O          -2.14402929390259   -0.60588818571369   -0.11988785940365
H          -2.17667986293108   -0.21529691715863    0.76513896371718
H          -1.41074139342077   -0.12915843018652   -0.55990441764678
O           0.11463782592356    2.70336279854769    1.32395753522639
H           1.34704372667510    1.94011573319249    0.78383817112997
H          -0.28270191937166    2.96284847591328    0.46599478923250
H          -0.47106734461953    2.01978551811899    1.69777239808411
N          -0.38374623093503   -2.53965102047980    0.00335767351082
H          -1.27564226506749   -1.96017142292937   -0.04042813952957
H           0.27919445372270   -1.94708876268906    0.58007093915682
H          -0.52086330399208   -3.46731527882857    0.38891091195561
H           0.04037849325972   -2.56242513285663   -0.97170834852576
