    26
        -50.45289853  Gyration_radius:  2.42936004494 Dipole_moment: 4.961
 S          -1.54096916096837   -0.17992873592371    0.50532686958303
O          -2.24882897959658   -0.11090530722398    1.75430029307401
O          -0.35517205484589   -1.04933804428538    0.58474277845888
O          -1.01294533410388    1.24451953438009    0.13023191497709
O          -2.36806319299305   -0.55289921570214   -0.64202626268161
H          -1.65815032434400   -0.42017456275311   -1.81343978625152
H          -0.44002738749906    1.56011662647182    0.87180004337242
O          -0.14464099120819   -0.40552001180267    3.28313467071052
H          -1.05519278491304   -0.33557403108773    2.92022990543908
H           0.26616406120441   -1.07693162503300    2.72969761311217
O          -0.96932643279747   -0.49205158722589   -2.64950393945166
H          -0.45893424898427   -1.33571901720601   -2.39298378244495
H          -0.28195999905337    0.28530847277073   -2.58485085041837
O           0.16748156223542   -2.47575110680514   -1.51922221223646
H          -0.37339070097110   -3.26648111335663   -1.47590016765781
H           0.02643288309354   -2.00094560247706   -0.65721615330352
O           0.47451012745995    1.89828293681388    2.19256060557956
H           0.03564624229068    2.58296099228083    2.70116621709607
H           0.34909271997160    1.05449225285548    2.70575702166222
O           0.89053781508935    1.21127965679870   -2.46390311777971
H           1.28830291794508    1.02789674073629   -1.55199855433837
H           1.57838270274455    1.03340238360773   -3.10817734086414
N           1.91205280618051    0.53832460553939   -0.13929684119555
H           2.81025161167256    0.07551028661242   -0.07867574597778
H           1.19803388522287   -0.11752408521040    0.17790322774812
H           1.91071224724805    1.30764953719570    0.52034360375604
