    26
        -50.45869867  Gyration_radius:  2.45215904931 Dipole_moment: 8.083
 S           0.10496634261224    0.31428042753898    1.58867414527420
O           1.03455458998398   -0.39906665474964    0.70111191254426
O          -0.44549364470974   -0.51554253174684    2.61336376218561
O          -0.90141245542715    1.01206472993503    0.77902543355156
O           0.96329441937261    1.43497394524792    2.28189845309973
H           1.26217742577361    1.98582018845415    1.54844359901618
H          -1.84240145721916    0.08138246586220   -0.33037262383973
O          -1.78068263611660   -2.33272968842015    1.08286323129039
H          -1.56384894272731   -1.68262994400588    1.77146226829673
H          -0.97527908005944   -2.87863491612042    1.02481142601747
O          -2.02712401819172   -0.67840043533122   -0.92101224808775
H          -0.73326493481908   -0.83564499770163   -1.48078680789105
H          -2.10933391439256   -1.43722649777203   -0.28324634540831
O           0.32577312972326   -0.83046287417890   -1.68084469727980
H           0.71130973116186   -0.73221082155357   -0.74194806038616
H           0.55140124167243    0.08476717836437   -2.15812116760311
O           0.83427974180074   -2.99969097925110    1.47703694801645
H           1.05202407901486   -2.09421574581034    1.19761912221931
H           0.77826283753267   -2.96191741902752    2.43449894257412
O           0.68979490934856    2.80008465931998   -0.12425264785427
H          -0.01803695796354    2.15740507909143    0.14021823692712
H           0.33499079371438    3.67414968209613    0.05135486882658
N           0.87944832468689    1.45778137618275   -2.67973492963839
H           0.93330871304173    2.04197963992974   -1.84353361656360
H           0.16979273005394    1.83716258507477   -3.29324007622501
H           1.77149904212930    1.49652156859940   -3.15528915909771
