    26
        -50.45702247  Gyration_radius:  2.55416556156 Dipole_moment: 1.239
 S          -1.13398408370835    0.00550588473010    1.07350166581025
O          -0.02517232431494    0.66810658167825    1.72632158839824
O          -0.71117001658995   -1.24233012143517    0.43916276388915
O          -1.80046804755456    0.88554389732284    0.11125120617851
O          -2.18409384446723   -0.39993181103323    2.15055950140955
H          -2.60000279065156    0.45331912159587    2.38586354585209
H          -0.91276806042404    1.21584694718311   -1.28167162952405
O           2.04798952151275   -2.27042804090528   -1.88131419041641
H           2.23721459396493   -1.86185820508951   -0.96775196273403
H           2.02239236760698   -3.22092557591369   -1.75827586419986
O          -0.27847137699649   -1.30805007922110   -2.03298882234341
H          -0.55491411906775   -1.37493468757769   -1.04338228028886
H           0.68321234575167   -1.71137006941100   -2.07513113231210
O          -0.18255130515655    1.17986485904216   -1.94048771542385
H          -0.19581417564665   -0.25557613994490   -2.15582747627065
H           0.61420122788560    1.42500032242035   -1.42074494485296
O          -3.16837192899262    2.04650017884424    2.01567828820661
H          -4.09662661840418    2.12454054319825    1.78358795966701
H          -2.68656149037497    1.87032334458200    1.18187398909705
O           1.58529284033078    1.75607396114607   -0.00880952572825
H           0.99532221777962    1.38390542228167    0.69419843925395
H           1.70026375413049    2.68273728636022    0.20837574429400
N           2.20995305808629   -1.16556094693130    0.46805514788047
H           2.76036825260731   -1.50871069645663    1.24484043143005
H           1.23025683087022   -1.19037185596186    0.74845120346305
H           2.44450319182754   -0.18722013051633    0.33466406928328
