    26
        -50.45679365  Gyration_radius:  2.50397619343 Dipole_moment: 3.970
 S          -0.34136146790237    1.53245117858323    0.66087803618777
O           0.88884090509157    0.76829475165886    0.83282254249047
O          -1.08680945885203    1.69107173344110    1.87592548556458
O          -1.14995601665158    0.91111249582206   -0.41583584094068
O           0.04616189870573    2.95351700424687    0.14107946464312
H           0.31163190776268    2.80405612303348   -0.78318651749601
H          -1.33744988214069   -0.57539467849580   -0.28188652630317
O          -1.38120973038101   -0.29955996629015    3.59857140469930
H          -2.32818083399364   -0.41740277382378    3.68984956754196
H          -1.26041833938880    0.52528604600127    3.08011985370887
O           0.15547664035359    2.01796158238364   -2.36976408087636
H          -0.43172900838603    1.46296468345235   -1.80834448536522
H          -0.41447431360517    2.48365228595155   -2.98511011959808
O          -1.29135773339937   -1.58801917017244   -0.12328839026298
H          -0.70115456260168   -1.66987209331892    0.78327592459034
H          -0.66807819546430   -1.96211932725743   -0.87295829494341
O           0.18362116358215   -1.53052657905787    1.86719534349203
H          -0.35463208121924   -1.25547984809410    2.64703740145075
H           0.63699599680899   -0.70131067139885    1.58329556792581
O           0.41986321786809   -2.38795642020487   -1.79556441046715
H           0.91978409703558   -3.10952752411496   -1.40912867916647
H           1.03465659469130   -1.57309731934529   -1.78802698136506
N           1.91656134756775   -0.26760872173598   -1.58569226818092
H           1.64696220436306    0.43911578581917   -2.26135110138717
H           2.92464598232915   -0.35336536792220   -1.61362599286342
H           1.66160966773652    0.10175679089612   -0.66628690308631
