    26
        -50.45630843  Gyration_radius:  2.44973243831 Dipole_moment: 6.927
 S           0.49728798131676    0.30901572606054    1.71623242025282
O           0.57221976794320    1.06419616701234    0.47369349603398
O           1.64638060262552    0.42850243878088    2.55351675246497
O           0.22454393829170   -1.15574475109762    1.37410332732715
O          -0.75189662439873    0.74299740194387    2.47801280429217
H          -1.56077535439910    0.55434706021429    1.83321310396836
H           0.34308594562891   -1.42749453310453    0.33711995898243
O           3.29911288461611   -1.01111162303092    0.98101768426928
H           2.86953173945165   -0.43887845220354    1.64067162047236
H           2.99931559573130   -1.90282365056871    1.16859752102653
O          -1.67956768189656   -0.52061519509296   -2.10304355411876
H          -1.69762622732652   -0.55792002137017   -3.06056685558594
H          -1.53951962766203    0.41883837296566   -1.85649035414136
O          -1.22856433079329    1.97366345383542   -1.19148087940795
H          -0.55316674915816    1.69213538910901   -0.53049865978572
H          -0.82249238970160    2.68246139425764   -1.69370733854854
O           2.34101428706101    0.07150485179267   -1.31640210100554
H           1.80973571339094    0.67379489358855   -0.76880676120263
H           2.97988025351506   -0.30920775333310   -0.68654814872641
O           0.47758055470756   -1.72598562475901   -1.01746164470672
H           1.22839921262614   -1.12265099003904   -1.28671456299391
H          -0.33068012505517   -1.37128940221677   -1.44559026397172
N          -2.60835342139983    0.27161177765173    0.79490168328304
H          -2.38278255710252   -0.57012948163842    0.27792758779215
H          -2.59458506769389    1.05129021689943    0.14595954535345
H          -3.53807836029283    0.17949233433519    1.18234359871531
