    26
        -50.46296391  Gyration_radius:  2.40762864027 Dipole_moment: 6.018
 S           0.02300652584427   -1.52714807880508   -1.04595153625065
O          -1.07225995162253   -2.44458324090734   -1.09253982448960
O           0.41755613562880   -1.21188506027326    0.34057127536028
O          -0.40852671149206   -0.14383897895422   -1.67545475421979
O           1.18776132840830   -1.88791498161285   -1.85559607649707
H           1.79301433417906   -0.65118932771964   -2.20446559772524
H          -1.16713817757262    0.24488503889223   -1.13864987969110
O          -0.17116407329863   -0.11714948506913    2.82402190906939
H          -1.04832745430314   -0.51664035720663    2.84909401579335
H           0.29523258929329   -0.60927242747040    2.13051420697714
O           1.82193728090718    0.99436423202032    0.15510428426477
H           1.39881357099880    0.11477334211102    0.29925938012990
H           1.16192172735473    1.62813108580755    0.48228297647942
O          -2.17269538319125    0.85820992167870   -0.10061088332502
H          -2.34452070022418    0.07822949559635    0.46618849807909
H          -1.60464685295563    1.45149027597497    0.42208055087266
O          -2.10762871308280   -1.47918441472383    1.26309399827641
H          -2.61049830864565   -2.13685991900894    0.77573419216658
H          -1.20491635236672   -1.56286022747507    0.89864680135870
O          -0.31656288744211    2.15435630651801    1.48140606167980
H          -0.24604357410912    1.35621536726124    2.06930851707819
H          -0.38778947240653    2.91379391681074    2.06058770981409
N           2.14078672063956    0.39599270956163   -2.35259611601585
H           2.08012189894532    0.80568155449423   -1.36168777728443
H           1.46318298913944    0.85383055689193   -2.95514934296068
H           3.07938352138394    0.43857269559985   -2.73519256894490
