    26
        -50.46296391  Gyration_radius:  2.40763086836 Dipole_moment: 6.018
 S           1.54874960809387   -0.48513727310083   -0.89036999460437
O           1.03761972192712    0.76840417574271   -0.30310261811893
O           1.68094764268402   -0.39280892862789   -2.31074858936329
O           0.47211820211545   -1.58104372279609   -0.52172091227611
O           2.73318758761022   -0.95825063004658   -0.17231599990581
H           2.22934415757012   -1.59419855995805    0.99355061789980
H          -0.42074934667322   -1.31341635951725   -0.90370777652858
O          -1.79289975264012   -0.68457880342574   -1.33572628519476
H          -2.12466373256614   -0.30362310935150   -0.50345758001745
H          -1.48257165659227    0.07146478834875   -1.87539918412437
O          -0.43488684300392    1.35175009259706   -2.49182181191016
H          -0.03084084677117    1.03398061455493   -3.30342747235684
H           0.24126152504831    1.16832449095933   -1.81072755886163
O          -2.33963890211127    0.64869442420811    1.02042855173275
H          -1.89237233795608    1.46543250925695    0.67326499838681
H          -3.16245705847513    0.93653082915702    1.41715453647791
O          -0.98175462160300    2.65575959691411   -0.03377438686047
H          -0.11219304491102    2.23234976043152    0.03867064368652
H          -1.15513593930314    2.68041602949627   -0.98190798017731
O           0.16180783858888    0.08985054073774    2.07319897212412
H          -0.79361522716516    0.09688376830481    1.89587736452913
H           0.56016265249945    0.44593707108216    1.24373963300159
N           1.66305484788896   -2.01871717844429    1.85295230425119
H           1.15588633397682   -2.82783154736084    1.50661904270409
H           0.97186076054975   -1.23168808739655    2.09013313434617
H           2.26777846121989   -2.25448450176493    2.63261834115909
