    26
        -50.45466159  Gyration_radius:  2.55007072644 Dipole_moment: 4.234
 S          -0.61906813775694   -0.94037060773697   -0.22300809150202
O          -0.02087080349587   -1.63985880802655    0.90062441775725
O           0.20776579881207   -0.94417274632973   -1.41170152002747
O          -0.95740565797278    0.44608284425189    0.17650746053474
O          -1.94409763848980   -1.64078130023572   -0.60297964125752
H          -2.49949860659300   -1.71284356023472    0.22315086930017
H          -0.52592037964252    1.51758744111221   -0.58174194131913
O          -3.20626193933560   -1.85611349947790    1.65724998373192
H          -2.64449378395152   -1.26638408969422    2.22063542042492
H          -3.06338738814319   -2.74858658493478    1.97971108702625
O           0.18717848805307    0.86250760342004   -3.25132615995345
H           0.11894720742628    0.06846526264637   -2.65783981118739
H           1.04161029761975    0.80356589180226   -3.68325352369719
O           2.21846971931095    2.20724784331484   -0.05469408342515
H           2.18116015118499    2.59362829465924    0.82208857738105
H           2.34758869554049    1.20801307601093    0.07814678588487
O          -1.34670077109554   -0.35152748404248    2.78353808543135
H          -1.43949067557164    0.44856684282103    2.25459791046557
H          -0.71590018363812   -0.89470464562755    2.26764955604474
O          -0.05471331412628    2.29238820119737   -1.16458697538810
H           0.89651532938941    2.34293563015708   -0.75629375860044
H           0.03327936318216    1.86352981071602   -2.09014260790452
N           2.45387621494612   -0.37838086922808    0.27890864912820
H           3.22615398216038   -0.73547991880860    0.82968714761980
H           2.53225406926033   -0.77141801024430   -0.65224750222239
H           1.59300996293128   -0.77389658749347    0.65731968574463
