    26
        -50.44706588  Gyration_radius:  2.43867706365 Dipole_moment: 3.553
 S          -0.40021785715902   -0.28214777084443    1.80409654433026
O          -0.01552272855552    0.67941530146049    2.78431681954987
O           0.67203612306845   -1.17241734732546    1.39656560633926
O          -0.91085920829406    0.46134876849759    0.53791187623459
O          -1.60642446835254   -1.09475655863891    2.21449144216440
H          -1.82891037256573   -1.66114420037665    1.35824223443797
H          -0.33280590174957    1.26907143345146    0.41040435952683
O           1.49516983343743   -1.58300604305454   -1.15362380833547
H           2.20112207009715   -0.93590736044014   -1.21265412379137
H           1.21356688805319   -1.58152355132831   -0.22288476345046
O           2.65204330964315    0.57269879054543    1.05225153557351
H           3.12062309496926    0.71050848723554    1.87784973503682
H           2.01250984455047   -0.14806608968283    1.22510283739934
O          -1.07280267461219   -1.11464029004896   -1.96866180535651
H          -0.12700874412948   -1.32864641322801   -1.87469499400334
H          -1.11729869651170   -0.13704916416583   -1.97203157148552
O           0.76903499449344    2.40436228013081    0.59898050826415
H           1.58096569761345    1.84755022717715    0.64890776635838
H           0.56435152579166    2.63189432863658    1.51199154213447
O          -1.92910950618145   -2.39401747207990    0.11157312167028
H          -1.27191467011301   -3.09474009826911    0.13013405249806
H          -1.69897240844467   -1.83322580863163   -0.69877091094398
N          -0.97030863592657    1.67513979050190   -2.13949953839242
H          -1.03490205792188    2.02582838511968   -3.08702379369072
H          -0.16891565684185    2.10802759752152   -1.69666893577500
H          -1.79544979427265    1.97544275787347   -1.63630574636499
