    26
        -50.44706602  Gyration_radius:  2.43871267573 Dipole_moment: 3.555
 S          -0.85246454923562    0.49728830614802    1.58691497356949
O           0.09870276671079    1.52447862585333    1.20158752172303
O          -0.53274970222425   -0.16051687082494    2.81102984555725
O          -0.90666914225836   -0.55598703172405    0.44477391546441
O          -2.25126126044625    1.06889366863525    1.57073217658122
H          -2.37039468467572    1.40891585951897    0.58394511112356
H          -0.17464805561974   -1.21860517852760    0.61217665740519
O           2.39412891167393    0.24910251469495    1.63646084096348
H           1.60910401009989    0.82225082994474    1.51980287580216
H           2.67458679997728    0.37110638072887    2.54564704826182
O          -2.31314830327725    1.86764162272756   -0.78985889732425
H          -1.81936038741360    2.69184070400388   -0.80287565044559
H          -1.80175081922626    1.24029066840009   -1.39731211256385
O          -0.77605154078278    0.47121709656062   -2.33413889728812
H           0.06531058874960    0.90996554605356   -2.11332674673505
H          -0.63541130781124   -0.47513344466504   -2.12833961715754
O           1.04496849740959   -2.01807162002252    1.25338251632078
H           1.70417291847812   -1.28932860131901    1.33123610409132
H           0.68002579429445   -2.12174009940438    2.13843435136066
O           1.39928274967296    1.65439414586664   -1.17364986023528
H           0.91507635288405    1.75300920413069   -0.33615775160120
H           2.20818059598729    1.18793933245325   -0.95300781028013
N          -0.11925024488744   -2.20531271539955   -1.85779118662788
H           0.62498284554688   -2.35706714526703   -1.18786257731578
H           0.10202186651231   -2.72460310883860   -2.69823131723495
H          -0.96738472010527   -2.59196868971400   -1.46357153335651
