    26
        -50.45466181  Gyration_radius:  2.55029925717 Dipole_moment: 4.247
 S          -0.70936936405007   -0.16719541535038    0.88790465305645
O          -1.34043170345652   -1.28489791924637    0.20800465018051
O          -1.20583581808918    1.12368835889937    0.45933623821312
O           0.76066130398818   -0.24646656552816    0.71810170969960
O          -0.99891277090462   -0.27274871930615    2.40301365916409
H          -0.73196028988849   -1.18672691521029    2.70223107904905
H           1.46994123718196    0.84021577965639    0.24165523900093
O          -0.36785425048374   -2.72365032605479    2.98899953134402
H          -1.18135617710338   -3.23253482237063    3.00136492121579
H           0.10455742334010   -2.97925410639851    2.15698732391599
O           0.12804986863160    3.33018398927219    0.49819109599705
H          -0.28655204144595    3.89567487689946   -0.15637049559466
H          -0.47338814624672    2.54747830040131    0.61193756908671
O           1.92394932028178    1.69093078596838   -0.23958087454910
H           1.32382296756188    2.46809094082553    0.05104154758935
H           1.73680588206580    1.51648942220073   -1.24389849816430
O           0.64014330508025   -2.99257655524814    0.55955018811484
H          -0.16574468924278   -2.51970518305120    0.26637157514557
H           1.31070359955996   -2.30086902781439    0.58214399322863
O           1.31045891964073    1.09529452703978   -2.62186788609606
H           1.84398941741782    0.36322094046627   -2.93634231431899
H           0.36698073320120    0.73457521250364   -2.50942658820002
N          -1.10010428974321    0.15085069959419   -2.23678170066718
H          -1.11421250818792   -0.48927760709327   -1.44253196048742
H          -1.58012229954936   -0.30118620708888   -3.00654765557272
H          -1.66421959953508    0.94039551606932   -1.94348701034665
