    26
        -50.44895148  Gyration_radius:  2.54594367858 Dipole_moment: 3.143
 S           0.22142821700918    0.29614911735334    1.52299603659384
O           1.03319247496477    1.04669158949801    2.41881446184341
O          -0.45291073860232    1.05643197953837    0.49834369737893
O          -0.80532888953710   -0.50714770643405    2.33468997034641
O           1.08662046642738   -0.79020335941769    0.83538186683129
H           0.90666894013743   -0.83945540331431   -0.15707775171539
H          -1.17073609143682   -1.23610953429634    1.73252257894748
O          -3.68745479025525   -1.12922780281170   -0.42680817523336
H          -4.14527988872260   -0.47341680539398    0.10215057450500
H          -3.09977343530004   -0.61729063334461   -1.03938934056731
O          -1.84261194074635    0.25788796887696   -1.68550258111386
H          -1.44188621694092    0.68062469163131   -0.90541424474760
H          -1.14050760630635   -0.29607814638199   -2.04501738602694
O           0.82880002247926   -0.74478849017983   -1.71928569645904
H           1.06287645839798    0.23757763398640   -1.76131343847672
H           1.55999336431135   -1.22025840520658   -2.11747666188833
O          -1.70689333517407   -2.31471720508274    0.79871208808029
H          -2.03626897777538   -3.07709088932671    1.27859363460552
H          -2.48700699733860   -1.92456823934976    0.31341485830769
O           1.39375660838995    1.75297805758938   -1.46191157287800
H           0.62132509494463    1.93065824746582   -0.90822649697303
H           2.15477690900795    1.75135416489948   -0.82790187695626
N           3.16626829023398    1.56874565798487    0.55386535150677
H           2.47822777058201    1.46328894130521    1.29848332692963
H           3.73710896391202    2.37478796832701    0.77863399823775
H           3.76561531729870    0.75317661220972    0.58872278893757
