    26
        -50.45354017  Gyration_radius:  2.50900454339 Dipole_moment: 2.787
 S          -1.13068871638772    0.67371637502982   -0.33922265890971
O          -0.66832783602618   -0.69347505323277   -0.19695192038417
O          -1.11585913802613    1.13429505173606   -1.69810409998241
O          -0.29153919228820    1.57803849528968    0.55688822840172
O          -2.53810435425489    0.81003093358456    0.22132798671083
H          -2.50697345744209    0.68770439071242    1.23721461406445
H           0.71929110917921    1.57462659058978    0.24750312235279
O           2.01503272984256   -1.19452598222314    0.09853962010280
H           2.13296308762097   -1.53723436877761   -0.80338118791448
H           1.04926902067402   -1.13784952611058    0.18295193773662
O          -2.48538028445162    0.36339473334108    2.71214008614619
H          -1.75925902437349   -0.32908360364207    2.78566664380316
H          -3.30950444364528   -0.06580273939865    2.95311885667633
O           1.22470026806778    1.35781097182895   -2.86364391232644
H           1.24854491591233    2.04981047608923   -3.52646940521443
H           0.29994345422078    1.31886319722280   -2.53041858385933
O           1.06200512249990   -1.44568604156483   -2.44386618916975
H           1.24025486983105   -0.58581336210186   -2.84564845700886
H           0.24011789861246   -1.34088327545758   -1.94982913885843
O           2.04707458988411    1.41241918859518   -0.27707538144927
H           2.23977792424943    0.46082272702629   -0.07009571863443
H           1.95320117774236    1.46371966561294   -1.24878199261334
N          -0.61441896271921   -1.48253339370869    2.55999788648786
H           0.30502693618281   -1.18266417182119    2.86002156161135
H          -0.62849488333177   -1.44001306499295    1.54192944239403
H          -0.72865282153546   -2.44968820333700    2.83618864946087
