    26
        -50.46878256  Gyration_radius:  2.45432030876 Dipole_moment: 4.630
 S          -1.00756953652782    1.12185789873387   -0.27878502701062
O          -0.90510967814887    0.34957189767027   -1.51283912693638
O           0.03567524077023    2.10321491551540   -0.13218688506818
O          -1.08236309300498    0.21475250950904    0.87935893235120
O          -2.39009120490865    1.85043138205247   -0.35623162188329
H          -2.47523423329221    2.26975402862922    0.51858491668239
H           0.51536249656800   -0.38429982237599    1.35225780935312
O           1.30745823217329   -2.57043364992139   -0.50436440895169
H           1.58302972040714   -1.94555040844118   -1.22182570526447
H          -0.12283628408118   -2.41087542892008   -0.55476660707497
O          -2.15295346733953    2.20376018426221    2.26539301561829
H          -1.62642744933953    1.42320022339568    2.01210161449700
H          -2.78043711897625    1.91432874620022    2.93156538952006
O           1.65965717960081   -0.48639411298560   -2.09082517928262
H           2.17898107580188    0.11170674650357   -1.52979213132663
H           0.76195591689645   -0.11615986664196   -2.08990063925492
O           1.40745800208004   -0.76556442133486    1.42530683097118
H           1.49658463510342   -2.06735773520396    0.32631775666721
H           1.99956472245833   -0.09592719904629    1.04802079371086
O           2.50471033884827    1.26058714732265   -0.11190119225307
H           1.59529366511861    1.64638529696244   -0.12226465753351
H           3.10799165439897    2.00062973185774   -0.03023016841633
N          -1.18302781727068   -2.04407646463303   -0.56091931941272
H          -1.17449922111484   -1.16781260734745   -1.15458526587640
H          -1.39956872319599   -1.68196573329491    0.37280460203101
H          -1.85360505309565   -2.73376326851339   -0.88029372580648
