    26
        -50.47135812  Gyration_radius:  2.4096375579 Dipole_moment: 4.535
 S          -0.25212938340846   -0.37513568105405    1.69893830210774
O           0.03905545894728    0.74104981516922    2.54756363521811
O           0.93701757023368   -0.94944770197973    1.06455410575140
O          -1.26820312371518   -0.08428570711156    0.68481215744549
O          -0.86176133467592   -1.52214094186474    2.59279409080900
H          -1.12431939564480   -2.19773163651896    1.96126511720380
H          -1.33668275658808    1.24116915074271   -0.45315442781599
O           2.24110282003600    1.02851417357944   -0.31890359124957
H           1.83950460674804    1.82482135642727    0.06441927647415
H           1.96140163637518    0.30434783596093    0.26470876255887
O          -1.09457003108286    1.95380565598563   -1.06997171730588
H          -0.06828690229010    1.09527065910204   -2.09852637159097
H          -0.55376292835288    2.55141582139846   -0.53499570388280
O           0.59859069512457    2.81855623002264    1.00837009289791
H           0.34975740240841    2.08883449669549    1.61875315701308
H           0.80158142338147    3.57248285414983    1.56487318328480
O          -1.86887054263024   -2.47975508714011    0.05299591142763
H          -1.75876729197652   -1.51111284013214    0.23635088732622
H          -2.81284540776073   -2.63839840395750   -0.00300359686930
O           0.68020511003313    0.52820534892256   -2.41360131274153
H           0.45081004278440   -0.82732040638211   -1.91194263950925
H           1.42345849610397    0.78526442423518   -1.81688024338106
N           0.42048275242408   -1.78545050001447   -1.35211440019657
H           1.07114236840827   -2.45633631888154   -1.74614127434926
H          -0.52122699192654   -2.18395104260039   -1.27702710352598
H           0.70731570698312   -1.52267155447336   -0.36413629701293
