    26
        -50.45887417  Gyration_radius:  2.46626418708 Dipole_moment: 1.926
 S           0.68774773167722    0.08696288022684    0.64088968590062
O           1.73333390763403   -0.52074192198138   -0.15779902836096
O          -0.05186232376996   -0.87321532192244    1.44902096334465
O          -0.23854993833797    0.85469929802680   -0.21303445983439
O           1.32165478001273    1.07257500035791    1.64805186433594
H           1.88101077382460    1.72345924319934    1.13775220983275
H          -1.66032633565179    0.60378788141136   -0.06595742488391
O           2.81780913294367    2.60263642960910    0.18275834088067
H           2.51254975088212    2.32543145099671   -0.71700011894078
H           3.72702228163332    2.30633123560908    0.26294967505608
O          -1.86350699692784   -2.11869505748095   -0.03691524193201
H          -1.18365250513592   -1.95365566025417    0.64903484573972
H          -1.32278509258156   -2.13101843747968   -0.88247934617547
O          -2.61286338763046    0.22920018738258    0.15845332404131
H          -2.44011279964411   -0.84050274744615    0.00262113267244
H          -2.64653522965163    0.32503518231594    1.16426039235113
O          -2.10230448171743    0.20357911630503    2.67254849841184
H          -2.45678292788281   -0.43116971243831    3.29811008576103
H          -1.22426035938538   -0.14317150493097    2.38689722396105
O           1.79356630806303    1.42033343492038   -1.94884676413730
H           1.93053751034505    0.58783244626339   -1.45374388518955
H           0.86498717715523    1.62574767655481   -1.78578820370411
N          -0.09583140463730   -1.81166176704248   -1.95821915426010
H          -0.29231362667378   -1.08780444220146   -2.63864729436060
H           0.29099437050493   -2.60328554091317   -2.45726313175315
H           0.63047369487128   -1.45268935910869   -1.33765420872099
