    26
        -50.45887422  Gyration_radius:  2.46645449588 Dipole_moment: 1.927
 S           0.16349443551667    0.49531400573600    0.78591609686182
O           1.03711525141466    1.33677817397870   -0.02073573405767
O           0.87123294384302   -0.55171464550534    1.49538006891836
O          -0.90807633584981   -0.07686311611539   -0.05123471866709
O          -0.49837005097286    1.44736471429741    1.80737160741822
H          -1.07140754949807    0.90227570067892    2.41674885487489
H          -0.96663433585545    0.32530054069365   -1.44434513818603
O          -1.24264736351495   -2.11817020193690    1.73348179150931
H          -1.62764308049376   -1.75403235144274    0.92713844766777
H          -0.33844423839651   -1.74490755657264    1.74010491618069
O          -0.78912367928032    0.69783193838980   -2.40756300815795
H          -0.74583363627715    1.69449838989991   -2.24422029549379
H           0.25857148230554    0.40730986614165   -2.53588694256240
O           1.61494304962590    0.12934380480699   -2.31159983788830
H           1.62890021202424   -0.80431568652689   -1.94352938447936
H           1.70773371762202    0.67812098243618   -1.50524109457993
O          -1.84362454886620   -0.12851426425031    3.36763588167258
H          -1.34130932881136   -0.26080557553613    4.17453505635120
H          -1.77472368703262   -0.97210165232900    2.85465405215917
O          -0.29105688778003    3.04444291250839   -1.49776259880844
H           0.32894456499763    3.66424889436787   -1.88678238628541
H           0.20136494626931    2.55674313618210   -0.79606677784008
N           1.44488647361481   -2.06713525447948   -0.87727957039204
H           2.22437785842405   -2.70756664474894   -0.79005088894004
H           0.60632179184675   -2.62123192663885   -1.00091785866814
H           1.35100796520912   -1.57221417409994    0.01024944135195
