    26
        -50.46878251  Gyration_radius:  2.45417575625 Dipole_moment: 4.628
 S           0.98929299331956   -0.64793309569566    0.97648014173844
O           0.88293975744674    0.75224121939827    1.37415545420619
O           1.91851903217419   -0.86534027649188   -0.10155147063904
O          -0.34690003091168   -1.18938744977900    0.67469392464135
O           1.49360808360055   -1.40596354508434    2.24896729829387
H           1.45600085139337   -2.34262691386746    1.98530047416918
H          -0.89132974668085   -0.73940155288762   -0.94890841005615
O          -1.14911354152755   -0.31124322310711   -1.78362601346064
H          -1.78366040232608    1.22361989121815   -1.39376036367121
H          -0.31302273705357   -0.11453797306347   -2.23485146793944
O           0.73219883761422    2.50045100716707   -0.75498221180757
H           0.94541393907418    2.01561411081253    0.05886135582599
H           1.06820018273327    1.94343700753806   -1.47539310245374
O           1.47448554331306    0.36510132514640   -2.35883447403976
H           1.70560632451768   -0.12153915071602   -1.53075622039445
H           2.16524763316377    0.16046359953857   -2.99068654568305
O           0.64406977805312   -3.61878243252766    1.05037472928733
H           0.00746589193344   -4.24402420407235    1.40410899120088
H           0.13646237564648   -2.86446783381279    0.69828907790713
O          -1.87179250571862    2.06905060278997   -0.88741444160378
H          -1.88783905609593    1.53972144251132    0.45183396249018
H          -0.95943357876832    2.45358478350027   -0.91759697808267
N          -1.69514847510310    1.00518230892528    1.41908626960290
H          -2.24142090817048    1.35582636708054    2.19755948066556
H          -0.65121408542475    1.07916820120925    1.57826876553283
H          -1.82863613626766    0.00178579424105    1.26038178428187
