    26
        -50.45482464  Gyration_radius:  2.56278054224 Dipole_moment: 4.136
 S          -0.71703479618131    0.70008955326147   -0.56321992076553
O          -0.28098239791154    0.22487841353399    0.75993628692155
O           0.03574459440925    1.85780801899254   -0.98483917082916
O          -2.21832997008946    1.06831225890375   -0.44800616943694
O          -0.66212406950959   -0.38842120058276   -1.54158388255343
H          -0.70541311618648   -1.73486889712393   -1.19173379555678
H          -2.30219973118436    1.88293569102980    0.12226027748906
O           1.94005464151465   -2.84273221132096   -0.95082261178098
H           2.25874990345544   -3.06709891684154   -1.82697021750547
H           2.10975128538471   -1.85315897105207   -0.82830024737484
O          -1.00142047976802   -2.10749893607808    1.59781069843665
H          -0.81554429533988   -1.15802188865953    1.36693417252512
H          -0.34128218186817   -2.36362557433385    2.24521067474591
O          -2.21373989181934    3.24990530252618    0.96866826310026
H          -2.25794317552725    3.98556439942138    0.35399378909248
H          -1.28063430986454    3.22164736081650    1.29708097023436
O          -0.59015114608993   -2.73927663786719   -0.82619422343185
H           0.43318819643005   -2.88987391831378   -0.87833054915051
H          -0.82308081185978   -2.64534900568889    0.16790555096671
O           0.35750609860602    2.82956805790827    1.44049880689427
H           0.30404825565680    1.94833386889629    1.82747989759405
H           0.42581187472884    2.65095156449769    0.47958508699749
N           2.14274012750312   -0.23683809464889   -0.68289055825434
H           1.48522193319164   -0.05351118934777    0.07156460375924
H           1.72006328723660    0.19288913617736   -1.49906050658459
H           2.99700019507588    0.26739180589775   -0.47697723554286
