    26
        -50.46485762  Gyration_radius:  2.56512138809 Dipole_moment: 4.106
 S           0.84285001826108   -0.37300566272917   -0.06430211690641
O           1.86006328741698   -0.78201038426375    0.89630218143855
O           0.09591692869676    0.79033093007662    0.42366568955566
O           1.57086042020955    0.03714871875860   -1.37038224650705
O          -0.06531144574459   -1.47047607703235   -0.38106882109215
O          -0.20869862101063   -1.54550072160371   -3.02796273821243
H          -0.24332061251036   -1.65711448174123   -2.05533293979336
H           0.70367878007193   -1.30814225639820   -3.21338760534191
O           0.48262626262138    1.81780680949248    2.81531194144163
H           0.28622590979926    1.53980331049704    1.88883142268757
H           1.26710751128533    2.36599291671384    2.76184568786626
O          -1.70936523307768    0.64643256571903   -3.32570212358503
H          -1.85621683808655    0.78187571965539   -4.26297735362329
H          -1.25753133098223   -0.22582872343769   -3.24002426405121
O          -1.64653639565394   -1.24372511484230    1.68499363713683
H          -1.14661925174294   -1.46299526376473    0.86242552241359
H          -0.41393226023421   -1.07541323066707    2.70598105807063
H          -2.03954062178415   -0.38479003314460    1.50850909167344
O           0.10565790321113    2.02797187939826   -1.94317914644570
H          -0.61871844520778    1.64054695530866   -2.48802421828500
H          -0.18167396020041    1.93951757601917   -1.02095669501228
H           1.08853071198397    0.86556753755186   -1.70627097848381
N           0.53905898607796   -0.81898600168493    3.09701257321946
H           0.53069416883183    0.20451847795501    3.31345270689331
H           1.20321468782431   -0.91421210912495    2.25592471149680
H           0.81097944995649   -1.39531331669809    3.88531501346089
