    26
        -50.46381263  Gyration_radius:  2.39121826394 Dipole_moment: 3.734
 S           0.85006670209631    1.17891399250464   -0.51682347961897
O          -0.06351846406902    1.35693874615213    0.60939524594017
O           0.29543745203645    1.63922219752237   -1.76395712808382
O           1.05740564859302   -0.40095518587359   -0.64425710739195
O           2.18289472422742    1.66401953323703   -0.18309894469162
H           2.53263109991802    0.72442536044819    0.89435678594757
H           0.56884855409152   -0.66403464532663   -1.48424732856894
O           0.31236038452541   -0.24502561686025    2.63310156448904
H           0.01699354710385    0.49137261792529    2.05184824165159
H          -0.11407300740992   -1.03308600905589    2.22733744365370
O          -0.63650141127056   -2.02400205771060    0.87538201402596
H          -1.45326117201475   -1.77213833680782    0.41812445825130
H           0.06769890566196   -1.69032695993256    0.30225996253137
O          -2.53783146534215   -0.95330386290607   -0.92796234814225
H          -2.53883103550970    0.03226358607382   -0.79927218935317
H          -3.45117878354207   -1.21031294634700   -1.06142343386131
O          -0.44010976868057   -0.76024786523972   -2.67679146644099
H          -1.27149560552913   -0.94178032812853   -2.19685598965955
H          -0.35890690873848    0.20612044273967   -2.74594203288658
O          -2.30817182325109    1.65827536392834   -0.71219040891323
H          -1.56972124062445    1.64040506414221   -0.06682751389362
H          -1.90002839966225    2.02302438697606   -1.50415114901987
N           2.68687704349599   -0.05092885350048    1.64819835096295
H           2.94572825191169   -0.90659583425412    1.16491614785293
H           1.71619179244107   -0.18882859080697    2.15449877469199
H           3.41049498951900    0.22658579108869    2.30438154052467
