    26
        -50.46582630  Gyration_radius:  2.46073450128 Dipole_moment: 6.128
 S           0.11310118285234    0.80184331276166    0.15291270766622
O           1.58184141344553    0.66645002941965    0.15347697335216
O          -0.40083681126856    0.57549258666722    1.48294142729872
O          -0.47031601207034   -0.10168578424054   -0.84136972658207
O          -0.23960213391621    2.24485663696301   -0.27453974043433
H          -0.15447320503635    2.24084616906812   -1.28120029429405
H          -0.38349616440095   -1.74599767695543   -0.26656953958899
O          -0.31901074620492   -2.45712782812106    0.40365647642878
H          -1.10901094174660   -2.29007426919071    0.99104653043486
H           0.77161076847401   -1.96372132827342    1.21042951313135
O          -3.09157967178800    0.10208818731303   -0.21072414048382
H          -3.19209109858135    1.02710572054984    0.01953141484683
H          -2.18216702018171    0.00395020818863   -0.54481369714256
O           0.06451941455346    1.77094149726000   -2.76408282618357
H          -0.27749648464079    0.88288037974394   -2.59252633488034
H           1.04064602932380    1.66946931207713   -2.80084761849245
O          -2.18153318123717   -1.40574409479177    1.90111020466695
H          -1.60464693820349   -0.62243467485859    1.96947618401359
H          -2.85115067518151   -1.12918887447640    1.25363759788121
O           2.64258300122401    1.35550721360150   -2.18324608875637
H           2.33311977068531    1.04053282173352   -1.30755099893695
H           3.21347408499327    2.10658253628759   -2.01236562244708
N           1.52961468652640   -1.36309427519871    1.77910578602662
H           2.36878380163354   -1.88525380461620    2.01109084383090
H           1.07194390849624   -0.99151548423209    2.60941037652644
H           1.72617303232641   -0.53270852661400    1.14201056214171
