    26
        -50.46582637  Gyration_radius:  2.46085846757 Dipole_moment: 6.122
 S          -0.15521310037879    0.28593948238210    0.75628968577053
O           0.09557525365046    1.61676585968000    0.25592708009490
O           1.08861822744124   -0.28528856436919    1.30599211774079
O          -0.70594664747484   -0.60872893788588   -0.26432657009634
O          -1.19311175068013    0.37466461930896    1.89831901004708
H          -1.56172781312515   -0.56227707969535    1.98188585443880
H           0.25950327922153   -0.51421139512179   -1.71410042649698
O           0.65770569076049   -2.60804761689031    2.52261880648645
H           0.91312665988306   -1.78367252668155    2.05682802418359
H           0.89557512152139   -2.48137191902030    3.44276589130656
O          -2.63710439189334    0.96679335130244   -1.31273741662544
H          -2.98448944923119    1.42943053788102   -0.54847420072393
H          -2.00644981489275    0.30990192243789   -0.96767280237153
O          -0.39011628351080    2.17605828906472   -2.33675531927055
H          -1.32266088973931    1.90457745197412   -2.36516764912766
H          -0.19984872842511    2.21187615969206   -1.38097530774355
O          -1.84535783299124   -2.08746515531534    1.73560565997461
H          -1.03132279292004   -2.50292852188214    2.09515302342456
H          -1.69616496084351   -2.01823921060806    0.78264239805367
O           0.88208808443386   -0.10398455650154   -2.34900241766748
H           1.92326346875374    0.33829765583963   -1.45205250175914
H           0.43134390587858    0.75391865786537   -2.58938388046837
N           2.54906933480163    0.71404854277527   -0.60015934972552
H           2.10612327220645    0.26567191748761    0.25814583426301
H           2.39231114609356    1.71690665331128   -0.51847758088907
H           3.53521104140072    0.49136439303924   -0.69288798286714
