    26
        -50.46068477  Gyration_radius:  2.45276141696 Dipole_moment: 9.302
 S           0.12765596550580    0.97182337771368    0.25780244771191
O          -0.69062192442437    1.63130623310018   -0.71663204671140
O           0.76935846394603   -0.24791933038321   -0.26164722358069
O          -0.78787115661755    0.48067789163679    1.43561288864261
O           1.11761749049774    1.82122864004059    0.91916914701175
H           1.36204316562913    1.19106853350115    2.15302430773655
H          -1.68367688763002    0.27737080865277    0.99190652997830
O           1.12268396720188   -1.72834275219281    1.84372003159573
H           0.27035850971515   -2.15886141891083    1.94523934497829
H           1.07617422888686   -1.25742176371753    0.97355360824401
O          -1.34855214506775   -1.44574987165329   -1.47369463693502
H          -0.52214006360080   -1.17608721336472   -1.04001517465326
H          -1.37686658946058   -0.88504043891837   -2.28330016642266
O          -0.99662167309393    0.54077860582181   -3.22532389288701
H          -0.97952888755897    1.14126133894520   -2.46312990881978
H          -0.05838542764547    0.38086425008254   -3.42009372024505
O          -2.86493120949675    0.00782901372175    0.07347566725753
H          -2.87762745587962    0.82045120912749   -0.44307726352429
H          -2.44941024139869   -0.67243601380587   -0.52890255964642
O           1.65975109172040   -0.15858632720368   -2.84308927501653
H           1.44013046017063   -0.12082985756973   -1.89605740960181
H           1.88540224045687   -1.07206453710313   -3.02970186272537
N           1.44927396044384    0.56944550738894    3.07910097820929
H           1.34866266872926   -0.43032168661804    2.72079371949473
H           0.66841196496631    0.80143594519805    3.68584419418974
H           2.33870949402372    0.71811985651116    3.54542227572324
