    26
        -50.45596856  Gyration_radius:  2.49383517831 Dipole_moment: 2.070
 S           0.62623423521958   -0.59331723400178    0.10360972474467
O          -0.06408614975566   -1.69662941535954   -0.55847333116449
O           0.36667025032992   -0.55557850014586    1.53135979519148
O           0.26514591188162    0.68603208064152   -0.52978138513946
O           2.12597332330222   -0.83932017900095   -0.13772698600780
H           2.65183433750235   -0.10372578549368    0.30110227241003
H          -0.71401569902304    0.67928071571455   -1.53403818192548
O           3.39702934134830    1.00229402631083    1.13448029323178
H           3.70941647538676    0.58837142927203    1.94198017921269
H           2.62764822924819    1.58527159900094    1.39625751333997
O          -0.13691728121966   -1.52500165603339   -3.16798799012728
H           0.06869478228665   -1.69684702926302   -2.21763958321016
H          -0.54544810843041   -2.32399247163132   -3.50680322352980
O          -1.47984476283307    0.45387482439005   -2.24925733017003
H          -2.13761657510940   -0.12506193580747   -1.65460957990638
H          -1.01385243545194   -0.22826569414693   -2.83660348331753
O          -2.21242239821209   -0.03294475241990    1.71185558791373
H          -2.53525912000681   -0.48375350504556    2.49440277458250
H          -1.24309225979893   -0.19852952347618    1.68411882582561
O          -2.63985250886585   -1.10624743263157   -0.67865412462077
H          -2.73103245279728   -0.64109332561813    0.18315056044902
H          -1.78870650491073   -1.58613050412972   -0.58801087768911
N           1.12753206066746    2.17549683559109    1.79263515817029
H           0.75029389011096    2.51444012873394    0.91550418555249
H           0.81604850748091    2.79328647174057    2.53165644502491
H           0.70962489166627    1.25809082281525    1.93747275109473
