    26
        -50.47385534  Gyration_radius:  2.4431944021 Dipole_moment: 4.145
 S           0.29301388166717   -1.38046076330764    0.49137693431262
O          -0.55444240447664   -0.81718854111427    1.51932978946433
O           1.29493659500725   -0.40243924842910    0.04346822894159
O          -0.44636601139040   -1.91062502179113   -0.64580067760987
O           1.07826023213666   -2.55735419390511    1.15038267577154
H           1.48073361331790   -3.01250198936895    0.38459593436966
H          -1.43959765459858   -0.71342327173834   -1.41237350329873
O           1.20900316977836    1.13397383665671    2.16537050697785
H           0.56488495762162    0.55679421182476    2.59634779866371
H           1.49182475257984    0.58935983954398    1.39822592600204
O          -2.35946799978516    0.97852117536043    0.73824925043708
H          -1.86888936408659    0.24576303497153    1.16551635252333
H          -1.28719604258025    2.02639996101314    0.70738578343950
O          -1.82862286493853    0.13076621992206   -1.71107162218035
H          -2.41533744976325    0.69961940297346   -0.20745033461120
H          -1.07460852578449    0.67783502731802   -1.96826000838292
O           1.50998622276891   -3.51857635267057   -1.27555058225292
H           0.72886278739862   -2.92766698327025   -1.31295741586507
H           1.18750530109656   -4.40543229252041   -1.45168031838263
O           0.66274635424763    1.47797079782261   -1.61539520070985
H           1.39198273928942    1.60186423583349   -2.22458818025081
H           0.92257624089649    0.71345042341568   -1.03333018304272
N          -0.36344144751439    2.60932062421427    0.64072654178530
H          -0.51348480882919    3.59542739398566    0.81893443039833
H           0.02999712799188    2.44086463910553   -0.30292230199940
H           0.30514059792889    2.16773783415737    1.34147016549495
