    26
        -50.47001088  Gyration_radius:  2.46320412922 Dipole_moment: 2.616
 S           1.38603835650699    0.00689969665594    1.72998494614798
O           1.68476857515372    1.40772083974452    1.89661261530622
O           1.72591964023254   -0.50483476744652    0.39453785068409
O           0.04135045702749   -0.36598499442938    2.10117467038965
O           2.38006812222816   -0.76978566097031    2.70337664771755
H           2.44979143272369   -0.15708932927204    3.42780368194760
H          -1.41581929429194   -1.10933834988845    1.58735114416732
O          -0.23623170644418    2.21037715591521    0.24584220806127
H           0.35343640193557    1.99423475636334    0.99229378433588
H           0.32812420392674    2.12993537829035   -0.53867906397844
O          -2.32560189689351    0.82840404372967   -0.51903205912316
H          -3.06282348002681    1.43978854966337   -0.53493753126205
H          -1.56263260234807    1.33256099018653   -0.12800117879933
O          -0.73608638883962   -0.18837466133034   -2.52160817190299
H           0.04910938882853    0.37475863126094   -2.41990956104957
H          -1.42656782214485    0.22355578559065   -1.96966691037931
O          -2.06830897609101   -1.47201435282688    0.95413976228763
H          -2.39649039433941   -0.68745151918125    0.47836960436465
H          -0.97624828681715   -1.96007934878892   -0.04542114062059
O           1.50982793404215    1.16127008208438   -1.62773796385090
H           1.66576592322762    0.54877618451272   -0.86965814180932
H           2.36992485809333    1.49503344843189   -1.88540923225737
N          -0.13491715073255   -2.01475735687197   -0.71106328944434
H          -0.37069679637893   -1.42676443035312   -1.56319972504644
H           0.10575006472929   -2.96820322960047   -0.95423107738541
H           0.66254941669307   -1.52863755147114   -0.22293184850104
