    26
        -50.46954428  Gyration_radius:  2.47751967521 Dipole_moment: 2.636
 S          -0.75986874393080   -0.08317403045361    0.94657078088187
O          -0.01332739282830    1.16806967584696    0.82434848769340
O           0.09868880823508   -1.22424775645479    0.66115416199901
O          -1.96075284562143   -0.08187722230776    0.12776421190201
O          -1.19274331067493   -0.17011642362334    2.44247513325768
H          -1.84023967951311   -0.90316596961685    2.43838466867893
H          -1.55259242516164    0.24322368231494   -1.56159562534732
O           2.63336028277729   -1.28022228297064    1.42666106413381
H           1.65964896908648   -1.31345995779897    1.28802420340149
H           2.94673294506090   -2.17654111648785    1.29395668929386
O          -1.07834190469991    0.49233313079487   -2.37449983369742
H          -0.78608584668463    1.40820269231484   -2.22454063271220
H           0.26494669557723   -0.51350916602774   -2.27814268776301
O           1.01635075512694   -1.01688407952136   -1.87438585138114
H           1.88308464352042    0.02351475115136   -1.15423109085016
H           0.63565326335085   -1.39027889159383   -1.05842760561354
O          -3.03763546319570   -1.89184921713978    1.68579970346430
H          -2.79785236491978   -1.36888731039408    0.89453047001659
H          -3.96590318045274   -1.71768950954893    1.85829866014832
O          -0.28327922556196    2.86760881469374   -1.22550824893609
H          -0.23764044218389    2.33224968680702   -0.40903190491718
H          -0.99253602395639    3.49823202436378   -1.09256893283045
N           2.28623692048718    0.65438210379683   -0.36926995776745
H           1.43739091996982    1.00925643355380    0.14225940575349
H           2.86642728576608    1.41209196736315   -0.71061392228809
H           2.77027733044510    0.02273797092475    0.30258865344571
