    26
        -50.46954432  Gyration_radius:  2.47751522234 Dipole_moment: 2.635
 S          -0.67936619051484   -0.89681393561796   -0.46419255907209
O          -1.35842937401035    0.02245157557720    0.44781225982051
O           0.64394538254408   -1.23700564934603    0.03953278299849
O          -0.63331038000132   -0.38031241501126   -1.82199769532373
O          -1.54053562994868   -2.19723011735387   -0.46877095684332
H          -1.16979868796208   -2.69984577910655   -1.22145707194485
H           0.13363866827892    1.21234921431650   -1.85014358200342
O           2.11502411277180    1.02457241808958    0.22844544250936
H           1.85485090560343    0.10702944421138    0.02702632519383
H           1.19606725143387    1.15960338934051    1.44921740315015
O           1.10075197316244   -1.58486898369871    2.62495564587632
H           0.88621155638394   -1.60835992602250    1.66484031779551
H           1.97711721733108   -1.96519766784711    2.70592676827074
O          -1.69748605179882    2.63036618921360   -0.04801768149367
H          -1.69320601133857    1.66724649785745    0.11846742071238
H          -2.49227870131384    2.81112984786214   -0.55208165066947
O          -0.37888101134006   -2.81672893835577   -2.75081592529257
H          -0.29502726162721   -1.84778736013499   -2.64513908667573
H          -0.90452720199410   -2.96160177475862   -3.54105618489013
O           0.51960433283365    2.06568988917280   -1.58431361922080
H          -0.18528878454756    2.51679592489913   -1.08798047273606
H           1.69100535831282    1.55529950845213   -0.49237830507670
N           0.41575229273132    0.94770515652541    2.17218323380471
H           0.71338698540552    0.09554099136495    2.69187003783255
H          -0.40650130793592    0.64627812809036    1.58813841099393
H           0.18728057754514    1.73369436224973    2.76992874230430
