    26
        -50.46999516  Gyration_radius:  2.40709752368 Dipole_moment: 2.777
 S           0.49970591093366   -0.93837290484917    1.05706297093594
O           1.43202798438108   -0.25775569460043    1.92837818752314
O           0.85002268886205   -0.74589314541080   -0.35078829106980
O          -0.88576626822042   -0.53053384189156    1.29314016696130
O           0.59720942189531   -2.46550307656988    1.36383593824270
H          -0.21403336286884   -2.84453858433851    0.97926710203419
H          -1.24796488521552    1.15851873968174    1.06339358998397
O          -1.03573284746388   -1.82264023745062   -2.11299391910273
H          -1.56727583148677   -2.35070193814711   -1.50877284278940
H          -0.21910107456436   -1.63125946795501   -1.63070662858284
O          -0.66874226634035    1.01007393996928   -1.73759353157074
H          -0.16619440304775    0.36048769286953   -1.20644370653108
H          -1.21902050832817    0.45898394634144   -2.30408947901946
O           2.14846778051785    1.41079412870224   -1.40601776132944
H           1.98215340358056    0.49132447635885   -1.13102082614486
H           1.40898531575125    1.62404441084900   -1.98963989614388
O          -1.89959539143046   -2.75258861279066    0.45340590456771
H          -1.75070443493520   -1.82242144169240    0.74344722786737
H          -2.57857776822130   -3.11614385211736    1.02524554963934
O          -1.18380895846635    2.06112645505447    0.69155713039774
H           0.34625002900001    2.32419155367082    0.93175974785251
H          -1.22663225727082    1.91707219023223   -0.27386627456985
N           1.40646101323266    2.19084448143240    1.02233405477161
H           1.81226173873190    2.06933572680645    0.05435725191847
H           1.52777527013438    1.25808414990879    1.50914564743404
H           1.85182971083130    2.94347089592089    1.53560269669785
