    26
        -50.45232504  Gyration_radius:  2.48905371384 Dipole_moment: 2.008
 S           0.72440764381068    1.01047388684988    0.18650356177440
O           0.67593507276404   -0.43276336714369    0.26751010366127
O          -0.33181709243977    1.60105536387959   -0.58338362724439
O           2.08883659275380    1.42413499216459   -0.38856745253148
O           0.73210809267645    1.61649013880236    1.57717741902542
H           0.94926862236536    0.93018391428020    2.32929609652656
H           2.15821178348295    1.02919348378494   -1.32571070252231
O          -0.69091417052572   -1.62878350201535    2.34435989518920
H          -1.43016466544854   -1.03058481531126    2.08159681679895
H          -0.16939545411164   -1.68971540111154    1.53407726018020
O          -1.02769525444971   -1.66488271719038   -1.41976547731803
H          -0.43093623138343   -1.22751728397489   -0.78209425674607
H          -0.64646624249880   -2.52607510325769   -1.59955933342233
O           2.07272476602795    0.46557072359409   -2.73964544958480
H           1.09115598209569    0.41078247695497   -2.94616829209719
H           2.44231741667408    1.09068371231494   -3.36753987862288
O           1.17357658002929   -0.12650991018760    3.32317906341843
H           1.97070328009480   -0.61036311035113    3.09460298934188
H           0.40210464004533   -0.73785278512508    3.11265065619052
O          -0.50824413322974    0.47191089906318   -3.02408732175141
H          -0.63835856301779    1.08115938505901   -2.27765983039651
H          -0.84121436801677   -0.38121356756304   -2.68828476328417
N          -2.31960648802821    0.08376947167240    1.02823616087714
H          -1.68851442723622    0.77000843680280    0.62619612130705
H          -3.13270416200932    0.57838327064526    1.37459659960544
H          -2.62531921038200   -0.50753859263395    0.26248366158616
