    26
        -50.46759607  Gyration_radius:  2.5083833741 Dipole_moment: 4.775
 S           0.59603559674377    0.02876102921174   -1.43553380172641
O           1.55926128949363    0.58775329784824   -2.34475319727616
O           0.28646691350466    0.94770017522658   -0.32705711101653
O           1.23033865300352   -1.24994872148131   -0.74918010379869
O          -0.61987774938168   -0.49603914176431   -2.03043555965484
H          -1.14453393413279   -1.29164458643046   -0.84588969916957
H           1.95998856991536   -0.95190239054687   -0.15080331394753
O           2.91016005915880    1.89139813385869   -0.50671234234776
H           2.53250713372361    1.47512292951840   -1.31542665103340
H           2.18289028649652    2.40833086438373   -0.14945801470026
O           3.03933180525796   -0.31386275506513    0.89159049167330
H           3.05788714661279    0.58787562427727    0.46414243016226
H           3.91572581217675   -0.68108114064055    0.76114014833096
O          -3.75640077145361   -0.29449546983867    0.21032168475066
H          -3.24018554926395    0.54106922712244    0.33263115531998
H          -4.16960698022873   -0.21430963894292   -0.65148516585433
O          -2.12157152119247    1.77723878928675    0.42132499765119
H          -1.26567760621700    1.51569825679628    0.01784679106966
H          -1.91605243831026    2.02498615438440    1.32508140667475
O           0.13604011131394   -0.51524364703576    1.82999834514523
H           0.22417723688899    0.15907183499090    1.11705093600501
H           1.03802582842664   -0.79316889810935    2.01177094976450
N          -1.52012076943564   -1.71547992659703    0.06703172275787
H          -2.48025134731195   -1.29625453175954    0.20865031779955
H          -0.88488691444715   -1.40429035482528    0.84313807690050
H          -1.54967085135028   -2.72728509385188    0.00501548655042
