    26
        -50.44481858  Gyration_radius:  2.71350044395 Dipole_moment: 7.824
 S           0.58832390318640    0.03546165078007    1.06705033954328
O          -0.09095283278035   -1.02968114897824    1.73458964208160
O          -0.28890315281419    0.94250956581202    0.35818535381480
O           1.64165848455106   -0.50467846619257    0.08085122228053
O           1.43211868881468    0.81029047747018    2.07027554956536
H           1.95872129368645    1.53819647968216    1.58054107114692
H           1.19059964073317   -1.07808739909052   -0.61740763335897
O          -1.07103300776907   -4.14528658524958   -0.63674617698426
H          -1.63234844280829   -3.55733299318079   -0.11394869111429
H          -0.38609871685135   -3.58027823616461   -1.00721072400466
O          -2.38731621495068   -2.11392460489898    0.89497764472861
H          -2.89725634803411   -2.44918826107021    1.63393805612767
H          -1.55372072061854   -1.76417886361101    1.26901615179507
O           0.35984045889463   -1.81481841101306   -1.69623400566272
H          -0.54252677621139   -1.37282109600784   -1.64106072365355
H           0.67720018129076   -1.68939504378874   -2.59273064804404
O          -1.84363176543157   -0.52491339923544   -1.28167600934276
H          -2.32708035259297   -1.10688744173623   -0.67435303235166
H          -1.42534745724996    0.14685509879681   -0.71341378295551
O           2.63177803421636    2.71237691298139    0.90024543142269
H           1.90644114632007    3.09649236922064    0.31909480896428
H           2.84006189402926    3.37323322555089    1.56455331798937
N           0.55096247487599    3.52818297021804   -0.50386455472461
H          -0.02958053760883    4.29861897306994   -0.19712925531178
H           0.05891297647072    2.66069162423945   -0.28727585313230
H           0.63917715868120    3.58856261239398   -1.51026751881819
