    26
        -50.44481861  Gyration_radius:  2.71371374068 Dipole_moment: 7.823
 S           0.18507896358978    1.19018175735479    0.18264140667022
O           0.25748937092407    1.61800353313403   -1.17873462725361
O           0.94037764598175   -0.01177949299326    0.46465292231397
O          -1.27510167046437    0.97063158733866    0.62253211081019
O           0.64643927214761    2.31731117461266    1.09672485057767
H           0.54216163051923    2.02734589119886    2.07243545114355
H          -1.70083747861249    0.26019372452974    0.04462747570561
O           0.56641061175340   -0.02946597011891   -3.26303575872709
H           1.02739870274930    0.40896419276350   -3.97983105189495
H           0.46031215866058    0.63561817732265   -2.55344796675594
O          -2.25346441724039   -0.30908337036049   -3.68375939031278
H          -1.28888524052911   -0.24849194521575   -3.68964621533932
H          -2.49781214904414   -0.38862665167074   -2.75653663759345
O          -2.18364590841688   -0.93095828718969   -0.81839445522802
H          -2.73597820494160   -1.55961001997842   -0.34934251832103
H          -1.33125399796010   -1.41059838879393   -1.05522910755415
O           0.53517437303468    1.56565371144350    3.51501442681468
H           0.93410484249430    0.64357818806221    3.46985280707777
H           1.14544496728817    2.11250666938730    4.01496697149033
O           0.16628820231912   -1.90321936611913   -1.29140756383120
H           0.39310467068101   -1.51871089465142   -2.15277439533801
H           0.60983591153453   -1.33736705185203   -0.63399555976947
N           1.62910252217772   -0.80315589611761    3.11682307821474
H           1.49038562362754   -0.70317787496961    2.11065424976157
H           1.12335598945854   -1.62703065038058    3.41640262714460
H           2.61451362826113   -0.96871272673360    3.27880684019670
