    26
        -50.46626612  Gyration_radius:  2.38253636954 Dipole_moment: 3.598
 S           0.93504882672885   -0.64406807466637    1.02556617528154
O           0.24981775128238   -0.52466453488305    2.29335395176135
O           1.18942096253462    0.66350900898520    0.40415748145798
O          -0.04175044852553   -1.39400869861253    0.03254215369265
O           2.14368278126911   -1.45106890295847    1.01699368832216
H           2.54288994766152   -1.21320266298533   -0.45184040506584
H          -0.95140326821579   -1.41099168435890    0.45644778698353
O          -2.23139094137187   -1.16445501360738    1.34127297199948
H          -1.66692440857399   -0.99022995699358    2.10842259509236
H          -2.51574611967144   -0.29191350964834    1.00113290160095
O           0.38197787316151   -1.15891010911569   -2.68711591781477
H          -0.02817616026773   -1.76400124869029   -2.05829579924620
H          -0.03842812735955   -0.28647774670356   -2.48354492561002
O          -0.56314192590944    1.99774431920709    2.04914550660547
H           0.16439499283041    2.26159917173456    1.47561524170053
H          -0.29765404851332    1.10393065780950    2.34761411411339
O          -2.52379769598267    1.36630145199215    0.40430148081504
H          -3.28582234695524    1.93343219608910    0.52944079816195
H          -1.82390417357877    1.69299958723854    1.03055028285251
O          -0.52570752868142    1.09057148131188   -1.59966407373533
H          -1.39417871025511    1.14587058983395   -1.17833737119094
H           0.10322299794565    1.01923254604723   -0.85429747702304
N           2.58305569623898   -0.64898417152008   -1.36694515158246
H           3.48852878230101   -0.67480108820074   -1.82424469237580
H           2.33590396426138    0.28486148514706   -0.99934184539941
H           1.77008132766964   -0.94227509243728   -2.01292947138184
