    26
        -50.45942976  Gyration_radius:  2.42421243168 Dipole_moment: 1.897
 S           1.87751960366144    0.18911832445433   -0.02083164924749
O           1.19735401780467   -0.80695226446887    0.77576057328390
O           1.04452067218030    1.35474604994237   -0.28185189131159
O           2.43546070207907   -0.34631999038176   -1.25799370181876
O           3.10786950836383    0.68427446322070    0.83326714412784
H           3.61454276357179    1.15463869875189    0.17991646951373
H           1.39257737127388   -0.88364063832167   -2.18638930979638
O          -0.69865658327403   -2.00006442602168   -0.63357053154185
H          -1.44178074832199   -1.36689247990404   -0.55367212673158
H          -0.02223816854455   -1.69842464121586    0.01109397294804
O          -2.41044830983580    0.09162237899276   -0.55217684391485
H          -3.35994082216361    0.16560170275389   -0.45473942539849
H          -2.00304072295454    0.65176377838089    0.18387738148938
O          -0.62111978548042    1.07912628742936   -2.33285871162055
H           0.00952844521264    1.38719845102307   -1.64587582361725
H          -1.42644825097455    0.82876264961562   -1.83649893282829
O          -1.20617284263100    1.50528040430849    1.22706078520509
H          -0.35689063848126    1.60169105740906    0.75992704998951
H          -1.00238643925081    0.95068857059088    2.01519889133764
O           0.50307097625168   -1.12869901106627   -2.64645799470143
H          -0.03112275628809   -1.64615933344448   -1.89384925141221
H           0.00146740330158   -0.19617782290742   -2.69645792003550
N          -0.32002375467202   -0.20236679870979    3.14652299868769
H           0.22282257671074    0.17565607107919    3.91260649048640
H           0.33484849464403   -0.54995831787932    2.44732428387947
H          -0.84131272218235   -0.99451314363106    3.50066805302818
