    26
        -50.45154453  Gyration_radius:  2.45524051828 Dipole_moment: 4.012
 S          -0.97882134554285    0.71526029868229    0.67968096590804
O          -1.31420066010047    1.97701626046782    1.25472120182671
O          -0.51072921528802   -0.27535268560443    1.62841887947044
O           0.08012173752879    0.88845837732354   -0.42619249419399
O          -2.15176752473557    0.09448471874722   -0.07592673200745
H          -2.24333727980729    0.50019599688628   -1.02648346054097
H           1.02826976820693    1.03186190135777   -0.01633610812239
O           2.29357320958634    1.09360043722430    0.72704410192207
H           2.43463833412947    0.14318818307638    0.90890406808246
H           1.98532179466600    1.48344035095519    1.57745098980434
O          -2.28324143442689    0.87745717014632   -2.45072841964993
H          -2.99662253796913    0.40845242465898   -2.89020306634001
H          -1.42681522605496    0.44967009744333   -2.76100662888273
O          -0.06585562013606   -0.35654906541067   -2.99935662111332
H           0.58351814339956    0.27750778774748   -2.68494629758519
H          -0.09261909988606   -1.06096659759962   -2.29957664962697
O           0.85493726907120    1.75384196983642    2.87424528784148
H           0.40151627613988    0.90057255300001    2.88957630110368
H           0.18086916468737    2.35823752807303    2.53545523131002
O           1.85060851958987   -1.49060954896016    1.42229384254016
H           2.12488652458656   -1.82532231027243    2.27791907809215
H           0.93993045052446   -1.14691628345132    1.53698405228241
N          -0.16113934270164   -2.07070619203919   -0.91332001622051
H           0.74922361380687   -2.12059474136848   -0.46931286649551
H          -0.50046588765162   -3.01801044791808   -1.02590944011144
H          -0.78179963641091   -1.58821818597921   -0.27339520553945
