    26
        -50.44595834  Gyration_radius:  2.53098787756 Dipole_moment: 3.280
 S           0.62025202532847    1.05085185988779   -0.85014936798463
O           1.53850963302795    0.79414365923911   -1.91482981839514
O           1.23199562369058    1.34689156874395    0.42040094728142
O          -0.29361007459667   -0.20966455546565   -0.65387160675039
O          -0.37065704204232    2.13992796880072   -1.20460799506426
H          -1.26265534098800    1.77441536815915   -1.61292041473906
H           0.24561877637731   -0.82647856642663   -0.08935253116177
O          -3.06480199898846    0.23003713850736    0.28290704687573
H          -2.43319015285430    0.70470318065930    0.87684408635481
H          -2.75283923676519   -0.67731812383556    0.26350231131509
O          -2.58627355351368    1.32981495866892   -2.00826232452910
H          -2.84125387827131    0.84645486548610   -1.16232272085655
H          -3.15015001282003    2.10635176369833   -2.05245011031877
O          -1.12843718775783    1.21156049818872    1.82558230450211
H          -0.95947511584737    0.36628944217901    2.28034789248971
H          -0.29805156222620    1.45015705530162    1.38867418303530
O          -0.47755525860918   -1.31705268393724    2.74620410034364
H          -0.13348338267785   -1.43789637961101    3.63260436903047
H           0.24647531887760   -1.51814393512658    2.13321337363204
O           1.52300268148582   -1.29801069997860    0.84458826156690
H           1.73816693602838   -0.36462821928014    1.00279973873337
H           2.14653665321353   -1.58393660887377    0.11677435474799
N           3.00966664987149   -1.59109459128780   -1.31811768085039
H           2.60540654181928   -0.73447840464762   -1.70144396138471
H           2.83490717992297   -2.33528116444691   -1.98187303258261
H           4.01189579831273   -1.45761539456603   -1.26424140528554
