    26
        -50.46138256  Gyration_radius:  2.45096824708 Dipole_moment: 6.355
 S          -1.09209161822848   -0.12643216907696   -1.04018363170750
O          -1.43323207704102    0.14505015821410   -2.40411106083676
O          -1.04433037387647    1.05837016437373   -0.18593151101507
O           0.37941843904133   -0.73178750186022   -1.02493594554988
O          -1.90418645653977   -1.18448488176156   -0.42227811032944
H          -1.02051767216941   -2.12355464226725    0.24025225216052
H           0.90506375232662   -0.17868848257483   -0.38544295608988
O           1.42914998914525    0.87459091627125    0.71082674563016
H           0.54524394512681    1.27754872761981    0.61565915833977
H           2.00617391033970    1.38491941938593    0.09620581071016
O          -1.89367760155817    0.10820207339295    2.12652331817493
H          -1.64684150393255    0.58591805870362    1.30559459639005
H          -2.58090937585587   -0.50105550647813    1.84718972157587
O           0.48601680228730   -0.98245927290843    2.53450150514025
H           1.05875524474019   -0.33253017834632    2.09733645505112
H          -0.39396355466166   -0.53720083475021    2.60360294648916
O           2.51698384671475    2.06088441013506   -1.38492083293114
H           3.05251816323065    1.56373081017380   -2.00443606016618
H           1.65726262455107    2.21895691042887   -1.83931581666765
O           0.08254643546979    2.31712404370396   -2.47543833462932
H          -0.43799673362106    2.84469237574296   -1.86458462130255
H          -0.44231037478956    1.50065221036766   -2.60363752721430
N          -0.24202075076788   -2.71224521459440    0.74635798885190
H          -0.61023925534275   -3.58623384119430    1.10775533833248
H           0.13158770202942   -2.06948659222361    1.54212684103485
H           0.49159647343942   -2.87448118039573    0.06128375043388
