    26
        -50.45863812  Gyration_radius:  2.40236370793 Dipole_moment: 5.809
 S           0.78360540994108    0.70133996182447    1.47164546733834
O           1.42554898367094    1.96678961147698    1.28387040348437
O           0.60149278610258    0.25633155067794    2.85096947396793
O           1.38694768589960   -0.37974615244065    0.67429248931678
O          -0.68142352903247    0.89447648603652    0.89467133637449
H          -1.12941364232690    0.01883998690606    0.80927203804441
H           0.87861782458958   -1.72292264505611    1.32539051665184
O           1.39580001550137   -0.46907002654521   -2.00550292956197
H           1.46162119724434    0.47894188855414   -2.18097730242436
H           1.53088699331435   -0.53137031383741   -1.04320648191256
O          -1.23589303138467   -0.89664385149184   -1.92585770049602
H          -1.45578652180412    0.05991434558823   -1.97361160734256
H          -0.25829040792112   -0.91070660202656   -2.05573886554149
O          -1.38481088030920    1.79020350783127   -1.65578223455164
H          -0.46191354457932    2.04473914338279   -1.82033229278866
H          -1.44854902915113    1.77626938210822   -0.69319985275602
O          -1.84725517730293   -1.43943916660880    0.47070691924296
H          -2.80354392133017   -1.37456113839037    0.48597343170787
H          -1.58730587189463   -1.32102132649138   -0.52145152808526
O           1.33044803060209    2.28427886338697   -1.36256397287670
H           1.37627694232512    2.16009126791259   -0.38894402741380
H           1.82637028791658    3.08416265004074   -1.54572740233413
N           0.21950676853034   -2.10570496366867    2.07114867257835
H           0.26141102492061   -1.22031769650441    2.69451492805372
H           0.52423973561793   -2.96377230320956    2.51668728573412
H          -0.70858811913412   -2.18110245948109    1.62375321559464
