    26
        -50.46567401  Gyration_radius:  2.51956262255 Dipole_moment: 4.988
 S           1.02188883914623   -1.36501987481536    0.13596907081468
O           1.55258009185378   -0.12503605011674    0.72829073835632
O           1.42824019202550   -1.50767761899062   -1.24302191853413
O          -0.42935100282519   -1.40547738906646    0.30211360596438
O           1.61767489592607   -2.55104459893266    0.94097889870901
H           1.19386255173019   -2.43394863732569    1.82215334738582
H          -1.15325452558337   -0.09172890856964    0.16292225842356
O           0.56243450655901   -1.84963231922622    3.25836795204336
H           0.09863109179133   -1.01636015120962    3.04465746168234
H           1.30346371217734   -1.61516470469996    3.82216271234645
O          -2.31492926525180    0.76837214751689   -2.58043996631240
H          -2.43915277005322    1.50705875369095   -3.17831529179706
H          -1.41256260884051    0.42686732673529   -2.74870239413316
O           0.79322907531890    1.90534302358352   -0.78531862285732
H           0.78158114758852    1.52022663129932   -1.67502610876516
H           1.27801159781793    1.25161907187810   -0.23645204123623
O          -0.11081316112083    0.71919080753925    2.53344851189323
H           0.34195698110912    1.40937585427963    3.02161046547824
H           0.51875849860343    0.43886334998834    1.82206537665659
O           0.31881351490544    0.14237228300138   -2.89101654102213
H           0.69827630207967   -0.52990120615177   -2.26096444018801
H           0.67690293562675   -0.09547692949263   -3.74820965235472
N          -1.52826440065566    0.90284628060866   -0.00457443608069
H          -1.99893279275746    1.22632706178794    0.83357986074291
H          -2.12883462774895    0.88391340539849   -0.84929779893769
H          -0.67021077889581    1.48409239139913   -0.22698104816542
