    26
        -50.46438023  Gyration_radius:  2.41481467524 Dipole_moment: 4.119
 S           1.04106267413831    0.52397235861788    1.14596668398509
O           0.91733640999457    1.31243028206451    2.36340454677465
O           0.59124783448821    1.28179168140253   -0.02158337604106
O           0.28019252435245   -0.72288626431354    1.27359162842008
O           2.53261596276562    0.16663661283228    0.93396083085142
H           2.52550424454485   -0.64526025185545    0.35765010468444
H          -0.94011428021085   -1.13669397658555    0.14616824764603
O          -1.62522694232415   -1.19370621701494   -0.54885086483782
H          -1.13098254236649   -1.34851042349858   -1.36570295781036
H          -2.13768526275236    0.41661684631900   -0.24026267521227
O          -2.03071364634772    1.32217352137813    0.14132584376657
H          -1.07911893338280    1.51284576847660   -0.02050621187080
H          -1.91663237835714    1.06210935440193    1.60094271762632
O           1.95336233968949   -1.99306824006386   -0.38137871684147
H           1.47965766278997   -1.84626802125796   -1.22346631416245
H           1.26101607744618   -1.98707720237785    0.29684686759238
O           0.36955625847522   -1.42436289995041   -2.55774832688761
H           0.62863091765771   -0.47404154331085   -2.64446701952462
H           0.58875974799702   -1.84555658357838   -3.38991870658602
O           1.06876330110981    1.12460747064486   -2.59609254693832
H           0.48792319505328    1.79344625286138   -2.96344387298789
H           1.01045794724059    1.23092216431731   -1.61995534556060
N          -1.58862773971744    0.78881680894175    2.61926543623468
H          -1.59029175545768   -0.22731473019684    2.68905265791147
H          -2.14563405108479    1.22002933082285    3.35023234489383
H          -0.55105955574711    1.08834791094082    2.65496904490529
