    26
        -50.45881530  Gyration_radius:  2.44670755535 Dipole_moment: 1.513
 S          -0.07790426723470    0.11160580859018    1.29135348464048
O           1.28383601391396    0.46843640605250    0.96225014214956
O          -0.61621701571808   -0.88544424556017    0.37340391044640
O          -0.96482881732830    1.28949559388146    1.31279537634885
O          -0.06662532341151   -0.49161046865718    2.72183750064027
H          -1.01796964484705   -0.53814473027410    2.95007852342450
H          -1.17304076927968    1.86047859401585   -0.08734354374151
O           0.77646120969359   -1.14268440353431   -1.92032980715645
H           1.67150031206302   -1.44095356003054   -1.65089646476471
H           0.26517646545279   -1.21236444908411   -1.09071945808287
O          -2.12981488565189   -0.27675942457964   -1.70948124077927
H          -1.61371837809839   -0.69714075006222   -2.40504727233756
H          -1.77305782076820   -0.63928449130619   -0.86916887143553
O           1.15657486086646    1.39000972927172   -1.50486575682634
H           1.40747360365440    1.22293305413309   -0.56828548271004
H           1.06750122516384    0.46241197574348   -1.87940344993867
O          -2.63609537692622    0.02617612762494    2.89908645727873
H          -2.95614144912256    0.55088586011018    3.63658800624870
H          -2.27258924705863    0.65215610990346    2.24311178717055
O          -1.19054719964151    2.01088369511143   -1.09771189746703
H          -1.68842500240855    1.19017197827882   -1.45998651791356
H          -0.11911038669521    1.83891084039714   -1.37688277705692
N           3.01522764771443   -1.47924159082209   -0.42288532535856
H           2.55662730759973   -0.83859804362613    0.22387545954798
H           3.92130750821559   -1.08568467872903   -0.64605699376011
H           3.17439940975722   -2.34664493680548    0.07468422152192
