    26
        -50.45271379  Gyration_radius:  2.57418940577 Dipole_moment: 3.142
 S           0.05848510053033    0.80163758636801   -0.56568670481749
O          -0.44794377689702    0.09342103217809   -1.70860649333386
O           1.49705693719541    0.91834446512328   -0.51682570096072
O          -0.39520123824216    0.14339979806956    0.72457660553330
O          -0.57390841589633    2.19859677545414   -0.56954400850765
H          -0.18276174907725    2.77070119361997    0.17515022821250
H          -1.21319659809457   -0.59199402352519    0.62856506391965
O           1.69780191157839   -1.66280403860701   -1.25088033825246
H           1.75748133919359   -0.75069122428639   -0.91709930508193
H           1.41672355484525   -1.56794652470594   -2.16460740584686
O          -2.12076735181425   -1.58126770896143    0.45565696490495
H          -2.60335708917121   -1.32411061221294   -0.36904453747590
H          -1.51724955817745   -2.32262413928136    0.19764193128967
O          -2.93635265399140   -0.79080556889870   -1.93303947456360
H          -2.92695787409345   -1.45797469137263   -2.62229022196066
H          -2.06898652193437   -0.33853319079405   -1.97883333855648
O          -0.23195352898675   -3.27985092641063   -0.28143386874748
H           0.17758490975012   -3.80861892644377    0.40511887064159
H           0.47561010202156   -2.69626721239597   -0.63473356912805
O           0.55399042590325    3.57313808518550    1.25988630107975
H           1.00739546157070    2.84504540151427    1.77856624731056
H           1.25014336608880    4.06240957503741    0.81587469954525
N           1.75485219021319    1.45386400853491    2.27032448504234
H           1.04666233975981    0.85300207794768    2.67356652458881
H           2.60763322756739    1.34423044719628    2.80437568652340
H           1.91721547014354    1.11569835167718    1.32332133865395
