    26
        -50.45046249  Gyration_radius:  2.62789879864 Dipole_moment: 6.223
 S           0.52291587820550    0.38849852284930    0.85993295410224
O           0.43673091455690    1.78355563024230    0.55997302877480
O           0.95048358048718   -0.43983779877995   -0.24133542991315
O          -0.84024437467055   -0.13018204298833    1.37419138605453
O           1.43493899425518    0.17712585940523    2.06081306515597
H           1.45203929425396   -0.81914445953375    2.29088490499711
H          -1.55364869313655    0.11033242304186    0.70220363256735
O           1.59254385974101   -2.30192093058621    2.56394678848543
H           1.60984035989710   -2.72913965331231    1.65238895676161
H           2.45198591093458   -2.45825760929040    2.96194222945746
O          -2.58275253039504    0.60324552771120   -0.34464263993069
H          -3.48579984051193    0.52482556936489   -0.03053061999177
H          -2.37609342866090    1.59977790539982   -0.37345065163155
O          -1.86217241460445    3.06204506660110   -0.31459119385694
H          -1.35193619801428    3.13504082966051   -1.15748586393478
H          -1.16407140290045    2.97391012787549    0.34835939571684
O          -0.65279318348140    0.09837343454991   -2.37749623346858
H          -1.49786180353033    0.10898406395001   -1.91279581597451
H           0.00682816826297   -0.17385554610871   -1.71878787889372
O          -0.01089522616116    2.73572830905940   -2.18166775107382
H           0.59042233029346    2.60743900603486   -1.43960791638314
H          -0.22383120567570    1.83381724813502   -2.49490604910457
N           1.66311715583493   -3.17647770014733    0.07653593823766
H           0.92644737777635   -3.79934185852324   -0.22970578226336
H           2.52362896480373   -3.47261181755668   -0.36686488130874
H           1.44017751245894   -2.24193009706064   -0.26730356258568
