    26
        -50.45840164  Gyration_radius:  2.40096199809 Dipole_moment: 3.926
 S          -0.87956447899437   -1.27856133093028    0.40347299164021
O          -1.13585009246121    0.03023265700239   -0.19248547630144
O          -1.29998999416882   -1.36555406935917    1.76539391658282
O           0.60392582752798   -1.59147330218552    0.25576281675278
O          -1.55956077531694   -2.33583931657260   -0.45273000878259
H          -1.37800855681834   -2.02608247807635   -1.41406705178163
H           1.24016725259865   -0.85305220869344    0.75158407902054
O           0.07455137568855    0.57412503680335    3.09093626569253
H          -0.44094302163446   -0.22605111053600    2.89419765722329
H          -0.44729190475385    1.30589039327293    2.71377706227893
O           1.92824060187845    0.19551779783988    1.31107776775559
H           1.73868915638966    0.92075919940988    0.67312636937651
H           1.37178861690054    0.38499752425438    2.12083900888951
O          -1.05253136236017   -1.26662125390052   -2.68205382836661
H          -0.06969515344507   -1.05823394594012   -2.66155504037333
H          -1.49342828814739   -0.43084966835153   -2.50428494886861
O          -1.56207939834853    2.08199451733854    1.49520836627791
H          -1.53252546823854    1.33258346564325    0.86949848975299
H          -2.45835698215982    2.11659233848114    1.83280904511497
O           0.82259004489780    1.82768857979063   -0.49657095943441
H           0.08335473135347    1.18724920488484   -0.51544846780452
H           0.46406059328081    2.61344024840833   -0.07513779590122
N           1.49900750463317   -0.59165561030559   -2.39230875537594
H           2.19835947268694   -0.74844575429730   -3.10659705270515
H           1.72158890571214   -1.17340011213736   -1.59200997911796
H           1.56350142302637    0.37474920720228   -2.09243447115405
