    26
        -50.46438036  Gyration_radius:  2.41492351735 Dipole_moment: 4.122
 S          -0.42829194299355    0.96026676988213   -1.25171113479304
O          -1.59028092594842    1.05724198980033   -2.12308540088909
O           0.20059792633303   -0.35641516766329   -1.35517751234252
O          -0.81417896898588    1.23809130273676    0.13541250315797
O           0.61264123501522    2.01913531327832   -1.69053230761509
H           1.17375154733069    2.18204880920407   -0.88418344416729
H          -0.51273800961819    0.10810840770128    1.38590739619649
O          -0.31133326347087   -0.65750913998571    1.95941184194939
H           0.65366802513882   -0.66526490799316    2.02459969782170
H          -1.03037032853049   -1.74276011581534    0.83811990660291
O          -1.38804641418890   -1.99099483620534   -0.04923453018784
H          -2.50033590995671   -1.02475960382837   -0.24835595143699
H          -0.74946185627829   -1.56585730784951   -0.66549165170441
O           1.61698760662079    2.20082836160407    0.69433616710899
H           2.03545412429768    1.38270646695494    1.02680329351752
H           0.67351668414895    2.09307053474247    0.88847983305370
O           2.60743470069165   -1.26940138865061   -0.85020407355562
H           2.51639857220209   -2.21161074952847   -1.00355514067861
H           1.75747021510668   -0.87036836795840   -1.14341078031380
O           2.47535377843814   -0.25599662140056    1.58783042977757
H           3.32979792443395   -0.30455827727380    2.01871297995351
H           2.58356099179848   -0.67129780126683    0.69715025100349
N          -3.12929452723755   -0.13817261590821   -0.44296228002554
H          -2.61796441731354    0.38247576882807   -1.23980343726118
H          -3.07572537550221    0.47140955385459    0.37119833441362
H          -4.08861140158985   -0.37041637753119   -0.68025498950689
