    26
        -50.44925299  Gyration_radius:  2.70529427462 Dipole_moment: 1.472
 S           0.12321854426664   -0.64358811729801    1.02391365010230
O           0.40999089678580    0.76598638752717    1.09049100037677
O           0.84937455377965   -1.35138189790965    0.01218493239864
O          -1.39378524302304   -0.84846510500017    0.85584191705889
O           0.38461822784709   -1.30074800745951    2.38003019440044
H          -0.35151623287929   -0.97693947257126    3.00484095389447
H          -1.69369158813082   -0.50309607050877   -0.07733273261246
O          -1.58917819624450   -0.38844353965976    3.69513411188702
H          -2.31794758600846   -0.73794634082261    3.17482393571251
H          -1.53614491209843    0.57400619290246    3.46942779231874
O          -2.04347411931860   -0.10253308919890   -1.44227322044641
H          -1.33041836878567   -0.58326354634546   -1.98050045231424
H          -2.88208056524805   -0.48807579603655   -1.70642843616816
O          -0.16204021102286   -1.44221888636753   -2.55041780877140
H           0.41715486666512   -0.84332588164493   -3.07585701983627
H           0.31407015646429   -1.60601438127915   -1.72104881987639
O          -1.21733810474837    2.03742313735510    2.73082334429481
H          -0.62967435341042    1.67648446966829    2.03174735150815
H          -0.70347695480116    2.69668133808733    3.20100735362864
O           1.61121408234001    0.22314989459937   -3.68725046955407
H           1.91623025401086    0.57192673461395   -2.81190407622850
H           2.36147046981613   -0.23091293167496   -4.07393530435740
N           2.35599334539419    0.86260741821140   -1.17224855682170
H           2.01754359418475    0.01309430614241   -0.72633715142782
H           1.78508542975404    1.60911129819736   -0.79249507788989
H           3.30480201441077    1.01648187642980   -0.85223741128062
