    26
        -50.44925309  Gyration_radius:  2.7055336904 Dipole_moment: 1.476
 S           0.01429053027151    0.89793079096644    0.82018006209025
O           0.85296381470939    1.32204494882379   -0.26086955760454
O           0.28454540322197   -0.43264127514453    1.29988670715439
O          -1.47324080169388    1.01029594000506    0.43786238304789
O           0.12546564752016    1.90568503830993    1.96518038583598
H          -0.67817443497320    1.74563983381915    2.57003042365454
H          -1.66869033383839    0.41902553605052   -0.39440870013484
O          -1.98876276756272    1.33696099277511    3.25494149597733
H          -1.91678151499704    0.35092935291663    3.30692135095328
H          -2.65256317741429    1.51435438980512    2.58273020189127
O           2.00900709527175   -1.16829005757538   -3.29404481529958
H           2.21125284403767   -1.26343694627341   -2.32925418048673
H           2.80134392625956   -0.81708887771659   -3.70319075884020
O          -1.86632534622940   -0.34256577212575   -1.62950101543720
H          -1.09600772859008   -0.00509570238629   -2.19720432797071
H          -2.66896609728095   -0.06419912306886   -2.07665747733485
O          -1.52623059427217   -1.24927467259333    3.03433074440563
H          -0.86091959955150   -1.07748071475226    2.33278298243440
H          -1.07329539443311   -1.74382036730177    3.71986536717246
O           0.13205649561580    0.69902035265162   -2.84719084351508
H           0.76223199132857   -0.00479168040780   -3.12607631568517
H           0.51435068660910    1.09041375191342   -2.04591941026998
N           2.46261846060264   -1.09550651538327   -0.63374765248926
H           3.36896383907506   -1.13644532827032   -0.18299362695017
H           1.84784366127295   -1.72605012311190   -0.13193797288986
H           2.08302337503372   -0.16561377192623   -0.47171543970591
