    26
        -50.46621024  Gyration_radius:  2.53578700658 Dipole_moment: 5.334
 S           1.68319184621446   -0.47331090716575    0.18916587507671
O           1.51003658753919    0.15886120959149    1.49671648291808
O           1.42751581310033    0.46780913158537   -0.89291049313600
O           0.86261425799369   -1.66687372687191    0.06254555197712
O           3.18318408921460   -0.89316187968217    0.06020473252380
H           3.27440934179023   -1.51758238203943    0.80505110773965
H          -1.59179329912558    0.16523279348458   -2.07529176648449
O          -2.80846975318238   -0.71817123388364   -1.57609589401475
H          -3.65857261708126   -0.32656160597740   -1.36978129679006
H          -2.42367552467649   -1.01706324200625   -0.70167547536847
O           2.44813240740519   -2.29277722338771    2.17871058402610
H           2.13256980322216   -1.42188387174258    2.45904106328183
H           1.74916324454579   -2.62973901645191    1.60175128208439
O          -0.79342070070700    1.31527994892456    1.63081021838724
H           0.11311079195613    0.90322010858287    1.60219107316492
H          -0.90048635338277    1.64885007449353    2.52350617343119
O          -1.66320753453288   -1.16295853088428    0.71034158675927
H          -0.76277655188313   -1.47698103023741    0.48273612749877
H          -1.53157199281553   -0.28933115884827    1.11289304280503
O          -0.24161647801576    2.73798704200943   -0.62364665669112
H          -0.60108439115268    2.40358152467369    0.21957181727914
H           0.64840165769930    2.35830215660589   -0.66020756729050
N          -0.74877006846300    0.77104503493094   -2.29390984685139
H           0.12546606840526    0.37149252606035   -1.85368239050483
H          -0.80913814968982    1.69988362473937   -1.79430657438775
H          -0.62321249436678    0.88485064349427   -3.29372875742383
