    26
        -50.46621018  Gyration_radius:  2.53573429903 Dipole_moment: 5.331
 S          -0.91663275736572   -1.48421397938435    0.22299879305655
O           0.16271875536129   -1.56906903301795   -0.75155572810167
O          -2.01304787953800   -0.64999232055776   -0.26810653802116
O          -0.43360811950121   -1.02201577467943    1.51416352595355
O          -1.46675603077589   -2.93689554541256    0.39601302417983
H          -2.17212133593675   -2.79958707952496    1.05684775061205
H           2.56600130192804    0.52455267505851   -0.08368345095691
O          -1.11220032987619    1.64062968776181   -1.04439778507646
H          -1.48849999985292    0.75702100783033   -0.77971249558785
H          -1.86528676009885    2.18373313243815   -1.28426376248980
O           0.65813081107821    0.41454320793698   -2.70950299810073
H           0.06348758279718    1.04256900040029   -2.25772545205995
H           0.29587782216517   -0.45259613880261   -2.47619083721294
O           0.10653621428705    1.57765747638038    1.45646227315267
H          -0.31509112722511    1.78819202764320    0.60760124002842
H          -0.08877341900946    0.62919623411990    1.60965080254830
O          -3.03183007418699   -1.60363170876854    2.05734333863970
H          -2.20305284990489   -1.29753889120106    2.45029145902202
H          -3.14566425017112   -1.05172951340610    1.27050647992666
O           2.66254896250054    1.66452660349971    1.01272151081756
H           2.85492124114021    2.57268066292744    0.77435077680139
H           1.70909611601132    1.65602357685642    1.31732489062230
N           2.38488279600960   -0.21010867363052   -0.82713473720263
H           1.96153707921944    0.22273421601480   -1.69290859859242
H           1.60275992028826   -0.85780255568337   -0.53295530618841
H           3.22406632066886   -0.73887827476266   -1.03813819570450
