    26
        -50.45972156  Gyration_radius:  2.57237664904 Dipole_moment: 6.173
 S          -0.05827937166766   -0.28019870735608    0.81491533819294
O           1.33979396422859    0.01528789648734    1.06153653801186
O          -0.42156461602715   -1.65175111906998    1.18514488918994
O          -0.92280390875637    0.66006127452039    1.70132247014091
O          -0.44739822139644   -0.03573508534535   -0.57457758363757
O          -1.77254192911870    2.25989475015458   -0.52322274076344
H          -2.17890229306949    2.14031036742001    0.33972188137749
H          -1.29272998462273    1.42132464641976   -0.68632510805777
O           2.21701119865016   -2.06368095150410   -0.31278829692724
H           2.42936339701190   -2.71113748705654    0.36093375012787
H           1.98778307809288   -1.24607152774294    0.17587902334333
O           0.29544507134871    3.89640487469336   -0.02953551152583
H          -0.03973234037182    4.79153219603847    0.03933011682930
H          -0.45610665986194    3.34080111603938   -0.33905349589057
O           0.53504170516891   -1.70377903054827   -2.37362816268975
H           1.35899265489027   -1.90508474175112   -1.89254147110571
H          -0.45889723127099   -2.54291268842038   -1.61863921595630
H           0.22449321399917   -0.87500319518063   -1.95135262705245
O           0.85459232545063    2.41577275183945    2.13208626633675
H           1.47312735536537    1.73296228537696    1.82813012622176
H           0.75492978078440    3.04315801080526    1.37971110473871
H          -0.29877672811363    1.41225215909934    1.98161902141800
N          -1.14034170742812   -2.96611622127972   -0.87387838419024
H          -0.87057665866264   -2.43145149249798    0.04951297362545
H          -1.00975193336081   -3.96564095659480   -0.75921849038164
H          -2.10217014128819   -2.75119911456183   -1.11508241142135
