    26
        -50.46811973  Gyration_radius:  2.53520124769 Dipole_moment: 5.664
 S           0.28795181652862   -0.58466574745662   -0.62248619178332
O          -0.40407536302391   -1.11251303716428   -1.88096554565416
O           0.90930038966757   -1.70425975143940    0.05618481011534
O           1.27677076817538    0.42590844916038   -0.99988580262679
O          -0.74846343705741    0.02842586793437    0.23556569849534
O          -3.21107152193225    0.58035338168621   -0.64189690189817
H          -2.33966107146193    0.43268404951740   -0.22167259672781
H          -3.66453816393635   -0.26401954816550   -0.61837795063519
O           2.78008994032477    0.18124242407580    1.11310369927930
H           3.04811647486443   -0.73569401402346    1.00718038916575
H           2.32138573172506    0.39116523371962    0.26335022731538
O           0.27730249382458   -2.56234302033871    2.44823812177260
H           0.82248076312434   -3.32484269044077    2.64764572318314
H           0.42495053754225   -2.36414284347369    1.49163220394794
O           0.21069577751228    2.57893715470755   -2.07614078679192
H           0.64806750537630    1.83252937958727   -1.60947332913662
H           0.83342810302374    2.87415826846898   -2.74272699238273
O          -1.67806458995917    0.84404521151584   -2.84074011350257
H          -2.40095169292328    0.89684700413545   -2.18123711131613
H          -1.08803672447837    1.60589815337013   -2.64651689599936
H          -0.91249914080125   -0.33559440801024   -2.33380308758883
N           0.51993523848426    0.08461049918242    2.47280625095163
H           1.50222138256257    0.21450793321438    2.09118576787646
H           0.41801693288045   -0.90483951034033    2.78790687753950
H           0.27930867525091    0.75725939074848    3.19238538486646
H          -0.11266085532412    0.16434218984048    1.60873815154541
