    26
        -50.46206275  Gyration_radius:  2.40756413953 Dipole_moment: 2.091
 S          -1.32674957922643   -0.58564298382909    1.06511414273933
O          -0.80015641888705    0.58457434322109    1.73418539257516
O          -0.28180220867474   -1.55568321854428    0.75375605795447
O          -2.11520187031971   -0.26276374714263   -0.11144961187298
O          -2.31068310153932   -1.28498464611692    2.08102258219130
H          -2.77504326377514   -1.89116798694299    1.51421071966595
H          -1.52895857948264   -0.51234146346174   -1.65910008551653
O           1.88532119796509   -0.25350427581675   -0.02587589237923
H           1.14467486928511   -0.79915957594174    0.32086647455346
H           2.08268558834662    0.39229231951140    0.70850850449800
O          -0.95739539259700    2.27641722200991   -0.25199822008928
H          -1.81213248202511    2.03142860540728   -0.61997728605572
H          -0.89017195791272    1.74612448258018    0.57544192763597
O          -0.95562535131946   -0.61160613223339   -2.45308446723669
H          -0.52683795906547   -1.49048762303447   -2.34139415471396
H           0.05052012226987    0.38291452265151   -2.19066053194838
O           0.29881472209420   -2.78128105029548   -1.55215428126029
H           0.04978074282415   -2.49341545266479   -0.65211466541491
H           1.25767546058625   -2.75372589225240   -1.57942413758900
O           0.72825386010211    1.09296051065256   -1.77097554384733
H           0.12742803229854    1.69578774593573   -1.20644963819084
H           1.31130271835572    0.53165021044936   -1.06759440068891
N           1.93627883390557    1.48545205018962    1.97652835682706
H           1.99122159865796    2.47386017901692    1.76543392265389
H           2.45793522979189    1.31884894880242    2.82733768141126
H           0.95886520833866    1.26345290784439    2.15984714409207
