    26
        -50.46452148  Gyration_radius:  2.52802171128 Dipole_moment: 7.103
 S           0.27756594768335   -0.53833671159408   -0.52091687440546
O           0.32522780905578   -0.36132026418238   -1.95161750523602
O           1.57289936762766   -0.71504821270345    0.11193582633675
O          -0.27524733899863    0.80352820947132    0.11036500114063
O          -0.65930920364676   -1.58294183402009   -0.10129338028033
O          -2.41550838091294   -1.10380527601395   -2.02264407165094
H          -1.81737186332687   -1.07323195070508   -2.77512667218064
H          -1.86449046202261   -1.42960606052638   -1.28322229623271
O           2.91424408349503    0.78363182642999    1.76576475514474
H           3.76531003502005    0.37168968490149    1.92180867656703
H           2.51208810790899    0.29916601787780    1.00335746881712
O           0.38804315381088   -2.27553786045827    2.13941046890738
H           1.27242232695130   -2.50368692661943    1.83971162671379
H          -0.11707192492003   -2.13482988771009    1.29258530627528
O          -0.49058979814276    1.83663032824296   -3.18279643250529
H          -0.12667025260454    0.99497062408845   -2.83135411389260
H           0.23822275856090    2.45815992490438   -3.19012671211830
O          -2.28597393236322    1.41601043120197   -1.23631269443888
H          -1.13914646467932    1.08475718735560   -0.41283970021555
H          -1.82882382887726    1.79240911093914   -2.01685283821481
H          -2.57189893959546    0.51452447641369   -1.52834999630975
N           0.45258993333947    0.28835345881370    2.61156734151611
H          -0.03182150392668    0.67530735267189    3.41464164245039
H           0.03326399233667    0.61019624779680    1.70754676726801
H           1.45953323698077    0.57671167377534    2.56278256673203
H           0.41251313122559   -0.78770156035021    2.57197582983035
