    26
        -50.46307778  Gyration_radius:  2.44580031152 Dipole_moment: 5.163
 S           1.56197580427990   -0.31776468985500    0.40832615318527
O           1.30338290245531   -0.16254169265897   -1.02615993055470
O           1.74336917145053   -1.68988318011450    0.79532202669275
O           0.25995283904267    0.23441619571273    1.12139334357694
O           2.59717135370497    0.59910670623436    0.87031577961206
H           1.91715221528177    1.88125044159376    0.89466302510551
H          -0.49701857822339   -0.34935337249777    0.84549285675049
O          -0.30719593241551   -3.16078008831497    1.59326635950025
H          -0.18945435087338   -3.99892439173431    1.14210877256089
H           0.51132050379296   -2.64872104461917    1.40638344522762
O          -1.66278221764063   -1.31624145576535    0.26964138745945
H          -1.39810356680605   -2.05376807110920    0.86660112754671
H          -1.33130418752654   -1.59482496576381   -0.61223099829979
O          -0.00825836545317    2.08679528549992   -1.29171197910259
H           0.49102635552916    1.23666527941914   -1.34618243181137
H          -0.91895471391399    1.84193690491057   -1.02520978050303
O          -0.37570756559191   -1.92472004801635   -1.98589300208365
H          -0.50490577723910   -1.69358449747345   -2.90687550185781
H           0.36669945375673   -1.36101315309794   -1.66628466566471
O          -2.45160789240965    1.22462581996575   -0.46409878911458
H          -3.17025464859526    1.11879049193397   -1.08963256103665
H          -2.29407997278074    0.34880652894163   -0.07362816279806
N           1.25868564682950    2.75791089704695    0.85071052437985
H           0.68714318493620    2.60945801562594   -0.06960158354477
H           1.78416689141374    3.62590539182923    0.84796274028897
H           0.62758144698786    2.70645264228987    1.64532185450089
