    26
        -50.45430370  Gyration_radius:  2.43281882864 Dipole_moment: 4.379
 S           0.40989082989288   -1.62185623383291    0.07630459514214
O           0.90313022064329   -1.72925369722764   -1.31206786347442
O          -0.78076256910542   -2.41120379057736    0.28604074810962
O          -0.01429320674380   -0.09026957007825    0.18807243442080
O           1.44971009470443   -1.77550528497142    1.05727073663144
H           2.13762217512387   -0.28019823145248    1.37569688697796
H          -0.57876216620430    0.08545858516716   -0.59723193161732
O          -2.22287323299153    1.51733108177004    0.94462006041770
H          -2.43235302601928    2.04764264495300    0.17410125193086
H          -2.45584953722430    0.60021129879507    0.70890707842787
O           0.32651463205292    2.17724262691535    1.85140980191400
H           0.18250410494405    2.16795392975982    2.79929821441807
H          -0.50037670507361    1.83750179660489    1.45712251994042
O          -1.25770445093137   -0.28986306569782   -2.10571956762684
H          -0.62073484387286   -1.02276852415971   -2.14655558756309
H          -2.08094359728707   -0.64986026185358   -1.74919987830489
O          -2.93398604237497   -1.00347037165895    0.02663098826073
H          -2.14273539248290   -1.58092777786747    0.18189041613466
H          -3.66372015697942   -1.43686861203516    0.47191166967811
O           2.45662901454785    0.64091171347948    1.22777091244193
H           1.69262541738933    1.22405174158180    1.45507824016533
H           2.49669752119088    0.55434084101636   -0.20182181430711
N           2.44234838473404    0.33447289404656   -1.30465862223924
H           3.36879246983253    0.19229296891959   -1.69388236646846
H           1.96050348207340    1.08486207688720   -1.79046676703789
H           1.85812657015917   -0.57222876847497   -1.38052217637532
