    26
        -50.44881683  Gyration_radius:  2.59624652025 Dipole_moment: 3.653
 S           1.45760898866487    1.08982933023810    0.46506157775261
O           0.19633509653925    1.73576867481485    0.20789012137382
O           2.23100179469503    0.75261138205449   -0.68557624154344
O           1.18113985233152   -0.18287504831745    1.31502868556302
O           2.27376969136978    1.94131126945205    1.44034342606552
H           1.58263582311166    2.20616777009107    2.15865662631054
H           1.06278017083124   -1.01905119184700    0.75723634133288
O           0.78379218680319   -2.34283755500619   -0.00170988774954
H           0.97297560096047   -3.08241161003547    0.57868821128301
H          -0.22396476102857   -2.32494964947744   -0.12015602412249
O          -2.14022191204952    0.43004516936110   -0.16555374439871
H          -1.33390122194063    0.94515293240692    0.00594972326210
H          -2.16497718529515    0.32689239498008   -1.12961195449213
O           1.04346431423353   -0.94340347382646   -2.43862005006250
H           1.52007902684062   -0.21540243355556   -2.00611212778707
H           1.13600707890888   -1.68498281518145   -1.82831825279706
O          -1.75829358458320   -2.19268397705838   -0.33146401222746
H          -1.88706916430995   -2.13450326301591   -1.28722600019860
H          -1.97474849035029   -1.28060465729199   -0.02528354094613
O          -1.60060221104747   -0.64095067376053   -2.70237027977329
H          -0.61893437477803   -0.71000999974406   -2.63725585117024
H          -1.78426193935956   -0.36433973395407   -3.60034729174681
N           0.25999686409314    2.41309533508259    2.94079001355596
H          -0.32636810695402    2.35728238579912    2.11288896994675
H           0.07801605136629    3.28166434974526    3.42594668795368
H           0.03374040823070    1.63918510219102    3.55112488571203
