    26
        -50.46126183  Gyration_radius:  2.41158600881 Dipole_moment: 6.060
 S           0.17890323583416    0.86151841794454    0.09429005289955
O          -0.86217296869856    1.54335651623962   -0.79431112202875
O          -0.05735701178555    1.24870897331792    1.49033892084083
O           0.02835225145045   -0.60209079994269   -0.01048154754310
O           1.49194386930009    1.26982793356776   -0.37277614984661
O          -1.02075367648136   -1.53755163648440   -2.28835924025783
H          -0.49909695805017   -0.95535982537964   -2.86291426213761
H          -0.56407051843948   -1.46259693594403   -1.43308067659124
O           3.35147805809522    0.00666535742901    0.99272716164082
H           3.87181100618067   -0.45997192816132    0.33547479576450
H           2.74697735968591    0.59757193033433    0.48018874160033
O          -2.40840188083453    0.00094152379431    1.67676098758256
H          -3.06434137502473    0.62414118006729    1.99641789243628
H          -1.56226188671602    0.49089416755398    1.64910741606889
O           0.74005608624690    0.55320286963484   -2.92602277550121
H           0.18918915759288    1.30491867595774   -3.15641898076031
H           1.13092690987644    0.78073814650972   -2.06770198687353
O          -2.79814305401799   -0.01296013273248   -1.03976979321824
H          -2.79911519149874   -0.32020508069491   -0.11378303659641
H          -1.72217085535864    0.95021291463599   -0.92401291715197
H          -2.32593714206937   -0.69622238127901   -1.58020409728616
N           1.20555999542598   -0.87950405259560    2.22291087343609
H           0.75861864333608    0.05651914239789    2.38671248013844
H           2.20251040816930   -0.69036265039671    1.93062142853080
H           1.10004576575936   -1.53609424121426    2.98884474420582
H           0.68744979208432   -1.13629809448985    1.32544110065490
