    26
        -50.46235923  Gyration_radius:  2.41926451774 Dipole_moment: 5.437
 S          -0.11156549866775    1.18982513744910    1.01727974083081
O          -1.05331379181657    1.99720992948052    0.28918249262071
O           1.16790437076049    1.05285574646554    0.32643236557899
O          -0.65143072560155   -0.14702317658359    1.33067412196563
O           0.16477882186324    1.90181708520642    2.37698710996095
H           0.66157387337725    1.24561887769588    2.89997653333702
H          -1.65240012678527   -0.26176871289666   -0.07494630345503
O           1.55034004149533   -0.86701648741999   -1.25724381795401
H           1.04563416714186   -1.65731175615951   -0.76763123227972
H           1.51399191721726   -0.09128400946199   -0.58983148504729
O          -2.10771292111079   -0.27154106460421   -0.93627043302427
H          -2.54696133002860    0.58275560213056   -0.97651079298773
H          -0.99033284557938   -0.20061569623855   -2.25105616441935
O          -0.19457202356690   -0.01117431945852   -2.79853837885923
H          -0.05098151503407    0.96459486170167   -2.70383348111319
H           0.86677144319866   -0.54623108962125   -2.02574999331316
O           0.89091076947766   -0.43197219874674    3.42957094389125
H           0.38415365664761   -0.63686958167550    4.21846354742891
H           0.28917100518211   -0.55211654551446    2.66692267541880
O           0.24334608737535    2.46335732852711   -1.98824213689945
H           1.14141163688259    2.48485280962784   -1.64747188740781
H          -0.32160773855880    2.42999139078898   -1.18979796414425
N           0.12711258041278   -2.55449369024079    0.00827814273298
H           0.52526030935845   -3.31172430186265    0.54719118959357
H          -0.63558597870919   -2.91447377069092   -0.55135009306485
H          -0.25589618491871   -1.85726235789419    0.64751528063175
