    26
        -50.45096465  Gyration_radius:  2.69006547365 Dipole_moment: 2.750
 S          -0.87827216095688   -0.02781485578982   -1.49790672531019
O          -0.15845053404889   -1.28252516744785   -1.49588455945247
O          -0.03971529850587    1.13471136804983   -1.43966009367289
O          -1.89398575407109   -0.03323656278213   -0.35618561671253
O          -1.76985078790143    0.04838629808045   -2.74530827306743
H          -2.27093555706117   -0.84137669228998   -2.72376783568061
H          -1.41446185410972   -0.16903184979197    0.59078646470913
O           1.61392376363702   -1.01252030894327    0.50996821205834
H           1.08257889733653   -1.32714853753660   -0.24297361920932
H           2.09363843087325   -0.24694224108106    0.15984081410418
O           2.53765129859705    1.40452897697382    2.23480831008528
H           2.58165250823921    1.62089779410556    1.28767428370580
H           2.58108153981292    0.44488741853533    2.27910131855510
O           2.41611222464740    1.46760787523042   -0.51159358797218
H           1.49178931373057    1.44391232051523   -0.84161841839498
H           2.92721085295315    1.91742032900022   -1.18587293094955
O          -0.00765532064168    1.99060455568668    2.81837864643055
H          -0.10327085140703    2.12512437135633    3.76217280891194
H           0.95732229394842    1.90811407341573    2.64205119742235
O          -0.65757623120506   -0.35640006850646    1.76744679666072
H           0.22475182224958   -0.64791111464245    1.43612576600683
H          -0.52363795697304    0.54175935939479    2.16017351717198
N          -2.69289871934939   -2.29967890621913   -2.27727921536114
H          -3.34052924309411   -2.25785290862522   -1.50142674445870
H          -1.76963975277508   -2.51809558310751   -1.91368128533702
H          -2.98683291386703   -3.02741995361399   -2.91536924028576
