    26
        -50.46804539  Gyration_radius:  2.48261741138 Dipole_moment: 3.285
 S          -0.37337934593386   -0.86649300753269    1.19870990766630
O           0.78810581269391   -1.73247740916095    1.05010474148996
O          -1.26428383506022   -0.97910374698740    0.04982504780773
O           0.02558852528535    0.51726504165702    1.43333846925099
O          -1.19778348940242   -1.34498937915520    2.43095384857305
H          -0.68189098408941   -1.01331759786152    3.19554604070160
H           0.96310650659688    1.45291924858174    0.30390390906891
O          -0.40139654057541    1.65511569102639   -2.32236066648581
H          -0.37670441357641    0.72129752219667   -2.57148987045121
H          -1.18035556514728    1.74530083840921   -1.74232304719121
O          -2.44502902925428    1.34230023737012   -0.54098148287412
H          -2.02133732658494    0.52630567057314   -0.20851967686260
H          -3.36482231830827    1.12392351812943   -0.69830216242101
O          -0.25307055708248   -1.19990402239975   -2.35257903537506
H          -0.66842003751570   -1.14863083626060   -1.45479188597236
H          -0.72777134005444   -1.88582715850027   -2.82400838943995
O           0.33943780387697    0.11284125829214    3.99616158976990
H          -0.09627186148004    0.79332549109083    4.51455258907712
H           0.42647836567730    0.46939765432679    3.08791558224895
O           1.50429341131004    1.67414629566413   -0.48022223635524
H           1.97225219615616    0.29859387993892   -0.81922814987434
H           0.84802089032552    1.86124031223819   -1.19785600762723
N           2.06698873514893   -0.78035656329074   -0.99242168178423
H           3.02123389739068   -1.06943637902006   -1.17426403632445
H           1.42893340682452   -1.03092132693452   -1.76419724910204
H           1.66807710274113   -1.24251522248241   -0.11746612756664
