    26
        -50.46167662  Gyration_radius:  2.49409471914 Dipole_moment: 5.131
 S          -0.31476068059830    1.08570476344581    0.10421335728959
O          -1.43546436548438    1.36232581147567    0.96300217685748
O          -0.65519152364010    1.07106612653491   -1.31297398561865
O           0.22529541348273   -0.34945234789109    0.45539911386948
O           0.84817715145415    1.94294732401826    0.37000495155489
H           1.82743067660485    1.18558485290595    1.07530265507801
H          -0.54754167092337   -1.02117724123081    0.34308341292475
O          -2.68745147138563   -0.50849998803205   -1.87461399922041
H          -2.01276367192701    0.18154273863755   -1.68729247329651
H          -2.59898832651035   -0.71583495532357   -2.80634150357025
O          -3.09062451089022   -0.46158196612576    1.91944497873402
H          -2.48742192606636    0.27421188101306    1.67315236658419
H          -3.95261894122955   -0.20572758584608    1.58533881438991
O           1.84868012504975    0.79305963507856   -2.02932216863491
H           2.19022911208746    1.65215831746431   -1.77134676407920
H           0.88320728126259    0.85466285323621   -1.85349647282898
O           2.77765173966989   -1.13954165339320   -0.48946958274552
H           1.99385182893527   -1.68778346965384   -0.38471663809209
H           2.52309507064278   -0.47260314948360   -1.17901339924350
O          -1.71805401580608   -1.93044539385832    0.17462400814893
H          -2.15124466977324   -1.58077304147316   -0.63417394053481
H          -2.28008966138557   -1.60470032602059    0.91457322386677
N           2.55887771598756    0.49313504681276    1.53678776914925
H           2.74820597465471   -0.23040374406252    0.75711824216500
H           2.10510541662490    0.03639144180380    2.32177790045523
H           3.40240792916619    0.97573409999142    1.82893793679554
