    26
        -50.46220852  Gyration_radius:  2.4226188734 Dipole_moment: 2.967
 S          -0.87945115853504    0.89433112441353   -0.05049147121487
O          -1.57297840562817   -0.36565947123064    0.17798651181193
O          -0.47781104424389    1.04730289751471   -1.44242238788187
O           0.28617454365237    1.00129343970368    0.83914117682224
O          -1.83340127492517    2.06315883868568    0.28199072252095
H          -2.16818826361423    1.82454187548047    1.19417249919300
H           1.62987064776165    0.73845287367048    0.26787158334919
O           0.21439272885680   -1.68773551248174    1.60857028756538
H          -0.52904103973251   -1.31726118194730    1.08490727286349
H           0.60438308950566   -0.92003582050149    2.03764748373258
O          -0.18543894475553   -1.50067098003838   -2.09900099902254
H          -0.35404477682253   -0.54619026787330   -1.95450648359040
H          -0.95182347617532   -1.93761340330777   -1.71919379895669
O           2.48150210762681    0.40902352792163   -0.22104870128676
H           2.41129871205241    0.80042510310997   -1.15952429743867
H           2.30574582305838   -0.67385688930875   -0.32826085971786
O           1.88979942731124    1.27487723997211   -2.55578214754170
H           1.86990431961500    0.59272727057515   -3.23180867588325
H           0.95983601014233    1.38563604151942   -2.25744142616361
O           1.83490379101814   -1.96770197133310   -0.45443705406177
H           1.15825938092722   -1.91923069071886   -1.17565529917392
H           1.30695112320952   -2.07958693622540    0.37683743573161
N          -2.48241482000046    0.92794173136112    2.53572582896666
H          -1.74717913211168    0.95404768926575    3.22961922641285
H          -2.39578634514892    0.06641040202067    2.00436410826132
H          -3.37546300603486    0.93537309358337    3.01073945111996
