    26
        -50.45174737  Gyration_radius:  2.50157529764 Dipole_moment: 3.269
 S          -0.16036583518810    1.66900073868909    0.05278127006769
O          -0.78208753267255    2.30748521999924   -1.06502831008544
O           1.12531344890292    1.06699054512957   -0.21680810755040
O          -1.10384882925409    0.55792241577190    0.57953930218235
O          -0.02630398332099    2.62064320918339    1.22971659460934
H           0.66830776410164    2.15980573120320    1.85699272874148
H          -1.92165455592401    0.42654139891496   -0.04082521576383
O           0.23497571984602   -0.88711108790970    2.57636130921218
H          -0.51305885200705   -0.51580155454232    2.09476084754898
H           0.60398961834727   -1.57434229081467    1.96897753571509
O           1.68463036042144    1.27685270689410    2.45871226778355
H           1.18530440152649    0.43546684856437    2.67136707528223
H           2.17081756963519    1.08080634056388    1.64915343300258
O          -1.17394399735458    0.32791944775395   -2.91483435272030
H          -0.46780022874127   -0.29488604884789   -2.66471345713848
H          -0.91948300035733    1.18548501636990   -2.53840682347916
O           1.00460033919926   -0.98435272252348   -1.85282287076532
H           1.09934910154332   -0.23265380449871   -1.22606348920505
H           1.76171698094737   -0.93962440249510   -2.44052886170760
O          -3.00074806384691    0.30756859072679   -1.05324354498597
H          -2.44073511984163    0.17205540014452   -1.86768933719037
H          -3.38221809789927    1.18462262055149   -1.14580933365405
N           1.03759607813804   -2.66937350960814    0.68345221008430
H           0.39343869376866   -3.45045311832166    0.67315292988128
H           1.97604592312850   -3.04514508108702    0.73784566165079
H           0.94616210699294   -2.18542259001764   -0.20603943160121
