    26
        -50.44779310  Gyration_radius:  2.38024743114 Dipole_moment: 4.732
 S           1.00277428542379    0.60054262800645    1.38469946426385
O           0.12299253797127    1.47205861633680    2.11189839087647
O           2.40990551058977    0.81588287354889    1.49002084185322
O           0.57875392728014    0.64061401020430   -0.08410329476905
O           0.66209106883326   -0.85038461528070    1.84523750141277
H           0.78947401907490   -1.49020421284338    1.07806716953151
H           1.39121529851631    0.26695571323503   -0.67200532828213
O          -2.07186756307588   -0.00752764999244    1.58369087449366
H          -1.29725853231593    0.52385016900968    1.84875006674426
H          -2.20967165654653   -0.63982953830278    2.29106503030059
O          -1.27746138468562    1.03711574732625   -2.25119065926263
H          -2.06308074918634    1.32982267957191   -2.71672157945993
H          -1.21592531409500    1.59576053750959   -1.44927840230826
O          -1.47172295479576   -1.26854692851744   -0.83639647410570
H          -1.32569546306611   -0.51301165760080   -1.44454971997666
H          -1.74646088769821   -0.85507106949227    0.00201898267485
O          -1.64097833814157    2.44870866067805    0.07576270837252
H          -2.31504258554226    1.86828228262241    0.44489428529337
H          -0.89379473704729    2.37553868049652    0.68385679389448
O           0.75805574883877   -2.38606658987832   -0.20781468563135
H          -0.09212859209563   -1.95969844443086   -0.56094424393001
H           0.51331498402363   -3.28300687774855    0.02965140124579
N           2.63754950743045   -0.32251385206381   -1.13523440267241
H           3.23557997007454   -0.05255262888380   -0.36193270700103
H           3.02904249463533   -0.02276717089320   -2.01634377094593
H           2.49033942557949   -1.32395138256188   -1.13309824257998
