    26
        -50.47018426  Gyration_radius:  2.58183345073 Dipole_moment: 4.098
 S           1.02390483691470    0.81865755651192    0.97941748954937
O           1.46506098787042   -0.16842808645304   -0.00488529292175
O           0.30371917376356    0.21212108974918    2.07620694269231
O           0.23766515122455    1.86967881169037    0.32652474812245
O           2.32495559003164    1.48116373994620    1.53030286366797
H           1.98320392289908    2.24502508316731    2.03354867297618
H          -1.26125371577657    1.34792416122360   -0.32854131471810
O          -0.11771661042943   -2.85229097367754   -2.40597786111541
H           0.60395136883883   -3.39037494742891   -2.73423688818349
H          -0.05608748212548   -2.89291193856049   -1.41263443421753
O          -1.92730950952006    0.77636298661814   -0.76465621074565
H          -2.12287086616525    0.08314908934403   -0.10794629454400
H          -0.89066065502436    0.15938596956873   -1.78372737019565
O           0.21510168977421   -2.59342247600817    0.18030010438827
H          -0.60878742665608   -2.28664466139623    0.59083504186069
H           0.81495410938458   -1.82793869056394    0.23024121534257
O          -1.81062401280476   -1.03912981102408    1.27432304313852
H          -1.02459198678983   -0.55601267083794    1.64364740388238
H          -2.39695840199229   -1.19456894145436    2.01651797724765
O           0.83159607744183    3.54057879697637    2.25920796085032
H           0.37143809984143    3.06331508622293    1.53927712043502
H           1.05318032708745    4.40866012875584    1.91463424167887
N           0.02425567735417   -0.20505328858824   -2.20213930326546
H           0.71682963255326   -0.13048018956639   -1.40577290506502
H           0.31476135897567    0.35634889087570   -2.99429727882226
H          -0.06771732668160   -1.22511470508431   -2.45016965202756
