    26
        -50.47049407  Gyration_radius:  2.50847388288 Dipole_moment: 4.345
 S          -0.65962578429528   -0.85757611789000    1.12779844834295
O          -0.50809128497724   -2.06009275933792    0.33400718717227
O          -1.56729802017321    0.09774150535155    0.52500875527172
O           0.65654545259050   -0.24046287138961    1.38286997875372
O          -1.26039846501631   -1.23759266050352    2.51370918894160
H          -0.52693156247247   -1.70990789479938    2.95416337505214
H           1.30673372414572    0.26959942726987    0.03383832486672
O          -1.00789337419334    2.68473956782565    0.64115994827143
H          -1.86136479714861    3.11499065844301    0.71707461687741
H          -1.18944325320325    1.72193390365564    0.70330239374336
O           0.08884591877923    2.36771333874292   -1.77762963970977
H          -0.60403536381303    1.75389557647406   -2.11961959735794
H          -0.27229486451338    2.69073337634285   -0.92238730696297
O          -1.55144224892976    0.31532012693229   -2.18029519444889
H          -1.74349998292113    0.20612374528798   -1.23111555047042
H          -1.00233216978977   -0.44332869927321   -2.41574080883480
O           1.16075574742091   -1.91328213549146    3.33598969626165
H           1.43906445589281   -1.44089826511242    4.12398688044651
H           1.24054656642911   -1.28454145656867    2.59010199037699
O           0.44674434809702   -1.70780565076857   -2.02964878776635
H           0.04787721206769   -1.89839132888075   -1.13559264885593
H           0.64440233698699   -2.56257016594121   -2.41529946332917
N           1.63639343162252    0.48059108052634   -0.94833244379243
H           2.63482569452764    0.65620320015946   -0.96479925536336
H           1.06616361010066    1.34252924515253   -1.31916703829575
H           1.38575266281679   -0.34566473619237   -1.52338305914631
