    26
        -50.44706662  Gyration_radius:  2.438516125 Dipole_moment: 3.580
 S          -1.76127744502998   -0.30447893953510    0.54195258438934
O          -1.31731736498022    0.98424867329228    1.04231708448717
O          -2.04126927899904   -1.25914033963316    1.56348464852356
O          -0.64722156083726   -0.86642559620978   -0.38504212720794
O          -2.91406661291057   -0.10756248867598   -0.41530397335313
H          -2.51762452931487    0.52490234458805   -1.15426749339695
H           0.00917376747377   -1.35348452474491    0.19351002060124
O           0.75162077469206   -2.02012486818075    1.43539856023825
H           0.82972415120277   -1.23620393879392    2.02802215425629
H           0.00593247645364   -2.52205136926500    1.78049069030783
O          -1.80899650521967    1.44449620267203   -2.02297649631847
H          -0.83288482055848    1.20627043059974   -2.14251678454875
H          -1.80973257723664    2.30606422370552   -1.59759091981615
O           0.74987427821531    1.07209587236705   -2.13869992284383
H           0.99234130918578    1.58211021497502   -1.34503258832819
H           1.10264762515748    0.17230956151508   -1.98479914067958
O           0.44657124416769    0.20172073708830    2.87616629160222
H           0.00600445527235    0.04552190916986    3.71384021385418
H          -0.23322511005317    0.58341770583310    2.28424851556946
O           0.98600674010881    2.22533016036537    0.33097980790569
H           0.09866630892030    1.91240633751268    0.57628670253790
H           1.57275246238607    1.91155071722421    1.02220861694209
N           1.98883958823447   -1.37351479578668   -1.58741152541110
H           2.87531413617233   -1.49505260740949   -2.06113866604066
H           1.34153806842257   -2.06176019560171   -1.95009021361422
H           2.12660842907143   -1.57264544705157   -0.60403603965009
