    26
        -50.45834985  Gyration_radius:  2.41814072829 Dipole_moment: 9.952
 S           0.31976658284280   -1.61556240104662    0.02242790071460
O           1.21502038705608   -0.50772935859208    0.36076584439839
O           0.57386119864715   -2.17462813948817   -1.26989026243610
O          -1.13929314179257   -1.00568577017291    0.05164618886917
O           0.26437476835517   -2.58531265181623    1.12543855774397
H          -0.42455190447686   -1.90287769269105    2.08604507848375
H          -1.25727172234330   -0.40250014436005   -0.73812298205148
O           2.12231524474492    1.39743955665262   -1.37145666133488
H           2.03717376784091    0.68472450139997   -0.71831074441396
H           1.44012545640813    2.04472344645837   -1.11873405875317
O           0.21155246623846    1.03706466387867    2.10771511408177
H           0.64377891581344    0.47839557085389    1.39201595044613
H           0.93040050609697    1.48695090912722    2.55626615222289
O          -1.40670823660398    0.57781732714068   -1.96751083837296
H          -2.14028066471744    0.36595855228711   -2.54663612281676
H          -0.55851908393285    0.34098404042434   -2.48909730445942
O          -0.19651007919250    2.55905951952806   -0.36615265921374
H          -0.75462575655717    2.02554106858881   -0.94814387427355
H          -0.25658567761123    2.15814270615624    0.50906782343954
O           0.76670836974392   -0.16203244095597   -3.06105869424287
H           0.83684208030912   -1.00474760327146   -2.57503244507578
H           1.41163286668045    0.44708791692839   -2.62954704004862
N          -1.03239117628269   -1.22349480486745    2.77765503685386
H          -1.03984695917803   -1.55590580692333    3.73649371473396
H          -1.97017031671641   -1.19341266058578    2.38656636443774
H          -0.59679788141906   -0.27000031468425    2.68758994109952
