    26
        -50.45739060  Gyration_radius:  2.46454173589 Dipole_moment: 3.069
 S          -0.08560471928932    1.06538002362263   -0.14170816123702
O          -0.21566439754344    0.78307262511098    1.27324775713269
O          -1.26733778029888    1.68901847280815   -0.70641863749969
O           0.24027509030368   -0.17498414050308   -0.88698226041689
O           1.14004288404632    2.00254251155993   -0.33157667577103
H           1.08175225318727    2.26159049787188   -1.30595036420868
H          -0.73762069683238   -1.21902269024239   -0.62031215012537
O          -1.50091381914339   -1.83392161577583   -0.25181439458036
H          -1.05697158442172   -2.38460916404859    0.53517238223054
H          -2.15539335479566   -1.15476355781083    0.16628304418214
O          -2.78215200435898    0.10944470446209    0.77574380167538
H          -2.52674975142085    0.78748653687895    0.11461808840420
H          -2.19966629561213    0.31772644147002    1.52006641235046
O           2.74236417085320   -0.45597485347109    0.08097157868189
H           2.95949201436225    0.47211050324274    0.19817535393738
H           1.89901018420667   -0.46234538058898   -0.40532033827688
O           1.31095525699845   -1.16084133962003    2.27623075384631
H           2.03200234011208   -1.11834680480175    1.61894504722576
H           0.76405299064524   -0.37586809265730    2.07272140944403
O          -0.38477612870695   -2.98938601112074    1.67235690025269
H          -0.93046025675387   -3.09693260008997    2.45357196771249
H           0.35203477083483   -2.34087608456981    1.92649377796721
N           0.50003393965926    2.34779372183015   -2.81038620630790
H           0.52854639230865    3.17043737171054   -3.39856332497193
H          -0.44533203710460    2.22224153047020   -2.45601044129501
H           0.73808053872872    1.53902740417435   -3.36955533033671
