    26
        -50.46241475  Gyration_radius:  2.40585408647 Dipole_moment: 3.776
 S           1.04967797521418    1.05366775749238    0.86661599029384
O           0.96865931200203    2.37483372701280    0.30922492616311
O           1.50802408761755    0.06041190483606   -0.09877447941636
O          -0.24108145488750    0.61709750799056    1.44382558608567
O           2.07104120987422    1.07292168422668    2.04421121310873
H           1.94548152620824    0.20063561652102    2.45956051160608
H          -1.48468935206740    0.72521973387037    0.57034530994080
O           0.47512835716686    0.30946703825832   -2.47734431330699
H           1.17320526900153    0.23418770653116   -3.12929998899341
H           0.91647316766812    0.22414438468815   -1.59326403653181
O          -2.17901277523026    0.79731980770278   -0.17246215726037
H          -2.04269815945177   -0.10413426836390   -0.76849584816284
H          -1.80564390106280    1.57271450330647   -0.76866493410341
O          -1.61508331674285   -1.19236114827157   -1.54555018626604
H          -0.95318224408907   -0.77511382891513   -2.12558409694163
H          -1.07477885270588   -1.75702324130725   -0.90896879737778
O           0.88978379298702   -1.13588154331138    2.98972502894330
H           0.26676859024517   -0.59496224849997    2.45747522719397
H           0.62589862853897   -1.03559090635722    3.90686503803817
O          -0.90332506670485    2.47717396745712   -1.54032594232796
H          -0.46775695284009    1.87007314347023   -2.16417427500439
H          -0.21380134391556    2.66900677156873   -0.86529504543898
N           0.04951793652183   -2.36899869603883    0.11513718672516
H          -0.21769941707139   -2.52909740463241    1.07828586036029
H           0.69930360320879   -1.58031487263656    0.11455485997584
H           0.55978941069511   -3.18539707632784   -0.19762265725041
