    26
        -50.46947539  Gyration_radius:  2.39136073139 Dipole_moment: 4.882
 S          -0.28506893100113   -0.69828973751430   -0.88487484759001
O           0.78667819404943   -0.56395166465519   -1.85616428184027
O          -1.61040611332215   -0.43357200680039   -1.40876531267859
O          -0.01056814419904    0.43615061975684    0.19810540835907
O          -0.20773624822050   -1.93967988552779   -0.12832878898895
H           0.76060147982495   -1.75655135487078    1.02927057955485
H          -0.10737508183767    1.31536140784643   -0.26315985511539
O          -0.56861489046163    0.08665030570167    2.89719113588214
H          -0.45406472385672    0.98915013123051    2.59091470877592
H          -1.29722099007868   -0.26988264991317    2.33724149685097
O           2.76781872628346   -0.06940475853648   -0.16365206227926
H           2.12837193892847   -0.32982031372009   -0.86613897448857
H           2.82551193443382    0.88689339121731   -0.21845859851547
O          -0.66130942768072    1.20481798102015   -3.29353013194309
H           0.14008770042767    0.66382961609951   -3.24169705769483
H          -1.31930176287009    0.64617221542618   -2.84280109822907
O          -2.43015651651326   -0.85795201191610    1.15528880509379
H          -2.32938219798702   -1.81323068827379    1.16656834297732
H          -2.24968649699222   -0.61021907672724    0.23112749914048
O          -0.33533179522920    2.64692809547900   -1.12412745746506
H          -0.40436485190542    2.24591650144080   -2.03302822798753
H          -1.19775452457248    3.02699398009181   -0.94325883328795
N           1.39433153828838   -1.32231011560334    1.77474714098553
H           0.73358781576952   -0.72096119948341    2.34285514507255
H           2.05995050163927   -0.74370762896154    1.20907713386438
H           1.87140290694230   -2.01933114304395    2.33559813161388
