    26
        -50.45059581  Gyration_radius:  2.42586706605 Dipole_moment: 3.391
 S           0.88167605474297   -1.27466416170627    1.13000897209446
O           0.89658082367568   -1.29528240519889    2.55417289158879
O           1.37572428361270   -0.04562690655122    0.53756285534576
O          -0.58216651422660   -1.48692265844702    0.62280833958317
O           1.59278830945111   -2.46351086113255    0.52351808330052
H           1.65777840050717   -2.22488352548692   -0.49765180825573
H          -1.15649695147701   -0.71685753701486    0.89878204905636
O          -1.90563960025311    0.58728095152791    1.44617202103495
H          -2.54788043267629    0.39541303915339    2.13289077431023
H          -1.14334893914161    1.05190000293284    1.88523386880040
O          -0.97990775172832   -1.58854351685517   -2.19851374577583
H          -1.26137590728312   -2.07659213898775   -1.42010927422109
H          -1.30269371526786   -0.66645413575016   -2.05553627314530
O          -1.72831764851052    0.86477986703210   -1.45705383014603
H          -0.91798181393263    1.42108850976934   -1.47195347452881
H          -2.01932394134826    0.86115077724822   -0.53941105225172
O           1.59209860339205   -1.56112768439609   -1.79584262474572
H           1.72153345719068   -0.65587725153871   -1.49124391913481
H           0.63278832268498   -1.61705013035749   -2.08591804347183
O           0.33084086247160    1.40718448735290    2.54713317168814
H           0.87837069797678    1.13486127379923    1.79108609761215
H           0.51423151243884    0.73357875281725    3.21274398796501
N           0.62474172331295    2.22053256442579   -1.16073192546695
H           1.04770853546460    1.51887882229191   -0.55986658880075
H           0.53881373526019    3.07250021249887   -0.62106235566403
H           1.25945789367401    2.40424366261689   -1.92721819673809
