    26
        -50.47009763  Gyration_radius:  2.39080681393 Dipole_moment: 3.552
 S          -0.41080888146418    0.46283122961732    0.99879953458654
O           0.62714396708626    0.87445006789948    1.92138906349280
O          -1.32669527609755   -0.53330058931835    1.52862465522808
O           0.33554156329797   -0.26588858428332   -0.20522924620845
O          -1.09469445826171    1.58928259597831    0.38076963015353
H          -1.41828968894524    1.23916514754048   -1.07249357753009
H           0.48864744738972   -1.19785872416255    0.11412429152474
O           0.35812122477041   -2.54687938915725    1.00853022057847
H          -0.41152618236449   -2.14954059888672    1.45106210630525
H           1.10401303861208   -2.37085346395590    1.61508759824581
O           1.47565551554674    2.43586886367712   -0.16552539700734
H           1.37250370480150    1.85706993435203    0.60827245571332
H           0.72136127655545    3.02943761480722   -0.11421809764047
O           1.15577718950497    1.07994891044224   -2.48701545027886
H           1.57399675258245    0.24136536262318   -2.27721001010692
H           1.34012052683432    1.64433497021538   -1.69954470552227
O          -2.17104288348615   -1.52232208567720   -0.80552128137550
H          -2.04013100442286   -1.14953367594965    0.09310659689360
H          -1.66494361819556   -2.33891037721279   -0.81573166486023
O           2.01269235340212   -1.26602505241552    2.69150025718136
H           1.58020475147572   -0.42126489043983    2.44496224776543
H           2.06636223089784   -1.26390373391276    3.64850819432333
N          -1.43858848513090    0.76307279279010   -2.02885875058437
H          -1.71629071471982   -0.21895721364235   -1.80248344227886
H          -0.43088344579712    0.82259879381138   -2.36147596095134
H          -2.08824689397304    1.20581210523057   -2.66942925767700
