    26
        -50.43980528  Gyration_radius:  2.76173299888 Dipole_moment: 2.474
 S          -1.77124229810750   -0.24036082484505    0.74321811216457
O          -2.10448034896935    0.77073192056213   -0.22358707561423
O          -0.66957310724575    0.05479494724853    1.59939029178622
O          -1.53821471713289   -1.56930485441250   -0.00711355232240
O          -3.00933233823093   -0.57072957800681    1.60627937946610
H          -3.67023718019046   -0.93183429599125    0.97066523184704
H          -0.64532371211116   -1.51660078288082   -0.63407893338819
O           1.82821176672282   -0.49730762743539    0.70257897422805
H           1.01234382156690   -0.29199746021139    1.18985169129744
H           2.55513987227739   -0.03462849126269    1.17909175556172
O          -0.38037828922037    1.10467932352656   -2.17663975018271
H          -0.86332339006049    1.32729129400986   -2.97428692450893
H          -1.03704346416804    1.10892221296011   -1.44375598570790
O           0.47598145416873   -1.31097500745281   -1.40613263513796
H           1.16337480454355   -1.13539056404330   -0.72347081111926
H           0.29920371026524   -0.44708830901451   -1.84408123877613
O           2.06054901656401    1.87498890023257   -0.87586160838136
H           1.27097511760775    1.91329182834026   -1.42542855590418
H           2.00329951366110    1.02922826123609   -0.40698132269893
O          -4.20736712139605   -1.87634264414108   -0.31658412242660
H          -4.54871084438070   -2.73697344086012   -0.06010989029310
H          -3.28120425160863   -2.00132495157662   -0.57447287842362
N           3.63482826733736    1.25832967402728    1.73868239924039
H           3.33988934069396    1.70133853588635    2.59974947225418
H           3.44739107447652    1.90419376349532    0.97823907258086
H           4.63524328293774    1.11306817061511    1.78483889446487
