    26
        -50.46098532  Gyration_radius:  2.47161661267 Dipole_moment: 4.606
 S           1.25587042601141   -0.15021854401175    0.88076404806283
O           0.53925722294361    0.85760631413295    1.64813182673285
O           2.13147362863214    0.43745280753728   -0.11212315011023
O           0.16838373510110   -0.99750115961077    0.12034490796188
O           1.88845460065591   -1.14792631615593    1.74193038766065
H           0.72093684109376   -1.81934997291353    2.23792666087367
H          -0.52404496533637   -0.36859579229666   -0.26996057334055
O          -1.53252698160833    0.68454273618739   -0.76112270747716
H          -1.54993116020610    0.41269272998154   -1.70483642915430
H          -0.93716825071825    1.46748716534900   -0.73332342354095
O          -1.01606712757446   -0.05074713618004   -3.26970262559738
H          -0.04597444724798    0.01229041223337   -3.11974182382242
H          -1.19290681857146    0.42003564807928   -4.08525296726349
O           1.56851823938104    0.49114613800756   -2.74909634401660
H           1.85554372915387    0.27069674982760   -1.84326599194933
H           1.61843623983680    1.44982691206853   -2.79346311485693
O          -1.78410900298107   -0.15612731332930    2.10429279182496
H          -0.95877469769013    0.39147710944120    2.04576686171389
H          -2.19312634968178   -0.05187672832038    1.23706709140813
O           0.46386831717490    2.48867808557497   -0.58655818846024
H           0.32523964517264    2.88235157629732    0.27858682600629
H           1.16118741022058    1.81966573642772   -0.43326194702983
N          -0.26349417070210   -2.26073760509357    2.50281344731116
H          -0.98053743590569   -1.47038484177339    2.35989885912407
H          -0.26883150874263   -2.60048336381245    3.45981664273818
H          -0.44967711836994   -3.01200133761813    1.84436891515635
