    26
        -50.45308616  Gyration_radius:  2.50641463256 Dipole_moment: 3.478
 S           0.50928416730852    0.62532908988725    0.64108680282236
O           1.38787157927464   -0.21407925684921    1.41114993537191
O          -0.31349227023189    1.50339451471051    1.42989211366489
O          -0.38425021276325   -0.23625503332508   -0.25890909024127
O           1.35111925228137    1.41918961347362   -0.35528522586685
H           0.85819857123078    1.53438624538519   -1.25310971861609
H          -1.18780400224314   -0.67600596147536    0.30374856417458
O          -0.53762654972145   -0.81650071294526    3.19451233775699
H           0.29191023352060   -0.72562712203033    2.69414849258736
H          -0.74144401102821    0.06678225355635    3.51365946826892
O           0.26460395785018    1.55403008780770   -2.61974849891392
H           0.28856649007621    0.56336063738348   -2.79606056179665
H           0.88786458279294    1.95196016118080   -3.23203501095945
O           0.49956666227775   -1.02130914962160   -2.83383365401388
H           1.28320423801790   -1.16344704357978   -2.23820379047932
H          -0.25505859224014   -1.31069450911669   -2.31424269349645
O          -2.20452447739596   -1.13520784594021    1.15670136332242
H          -2.74066340173373   -0.31701817055392    1.26923665010881
H          -1.70486145509690   -1.22885968124878    2.00322951847855
O          -2.98130741111254    1.39197636434590    1.42853406238338
H          -3.30192834324721    1.93405448423631    0.70605716156828
H          -2.02348828956359    1.57558838849127    1.50621291193686
N           2.49828448209958   -1.30874694135612   -1.04476334232173
H           2.11833117030650   -0.98465746160638   -0.15846875768759
H           3.30242071484067   -0.72769838298228   -1.24876853606415
H           2.83522288441313   -2.25394453781396   -0.90474050201728
