    26
        -50.45465428  Gyration_radius:  2.46297306722 Dipole_moment: 5.251
 S           1.13972929786426    1.14447561557966   -1.19455697551760
O           2.56231775261740    1.13829144430756   -1.17077950283876
O           0.54466380396585    1.17432093968492    0.13857560183948
O           0.56491814702212   -0.06202891071975   -1.94472713069564
O           0.61727123724001    2.32490356058396   -2.00886315595403
H          -0.35669410393250    2.15111378219553   -2.25883578192836
H           0.73594168017630   -0.95288054448145   -1.43295153846918
O          -1.39685934260895   -1.99258795158998    0.82548674896849
H          -1.01649382877965   -1.43741702123691    1.56606206530007
H          -1.82190955992925   -2.75092453166347    1.22744436121919
O          -1.84832282047162    1.87873142357936   -2.46733185133348
H          -2.04814476996174    1.27582064509290   -1.70490108945804
H          -2.35292050611433    2.68170499974060   -2.31726841930761
O           0.94191874055343   -2.08655846560494   -0.51689086608903
H           1.55247903800748   -1.70963641365017    0.15274228909382
H           0.06780175724786   -2.17112715140060   -0.07905695644059
O           2.44438412683454   -0.52200589066369    1.08467684710530
H           3.23448014646589   -0.29880715098264    0.58386180076604
H           1.82462505260079    0.19976606902136    0.88416379216910
O          -2.03279968672584    0.54201345923401   -0.22335436585216
H          -1.12780486657069    0.81952393083149    0.01185391371695
H          -2.04298680067572   -0.41588858832431   -0.08817095209513
N          -0.20872594847091   -0.42414070330710    2.61636303750947
H          -0.60305902813847   -0.12124640604826    3.49804013703071
H          -0.09784907767967    0.39498748751835    2.02611622653834
H           0.72403952938257   -0.78040361771913    2.79230178469572
