    26
        -50.46049131  Gyration_radius:  2.43280938581 Dipole_moment: 4.012
 S          -0.64929241112492    0.75193797805145    0.06321927909782
O          -1.48164502294748   -0.26392417979453   -0.57185195013702
O          -0.15138341776575    1.74154041949258   -0.85680093172093
O           0.57008373700457   -0.02452828220351    0.67646322137225
O          -1.31335063820257    1.32156513393500    1.23969950512658
H          -1.03614561299694    0.39546947910294    2.33577836320901
H           1.15014150694815   -0.40655275374749   -0.06728277406190
O          -1.31200262898569   -2.21754778322781    1.14761120539237
H          -1.51360861607352   -1.52725590845728    0.46609729018796
H          -0.63709888978912   -2.77415990882869    0.75156156459221
O           1.01386609010359    0.91405961352515   -3.07470478656058
H           0.54766989983019    1.26070923510285   -2.28157975875032
H           1.11949887059712    1.66218750282614   -3.66362439538456
O          -0.31948425923272   -1.56672577671441   -2.60302273475167
H          -0.08594434989136   -0.86014811409628   -3.21846236529702
H          -0.89981857535809   -1.14408947726583   -1.94058154655374
O           0.99361584917703    2.69796993078348    1.71944575482727
H           0.09337519145231    2.36811685285230    1.60093224485679
H           1.29151140097395    2.91163522477732    0.83305512973413
O           1.88175847205412   -1.02239529324219   -1.26428519958562
H           1.13995754042584   -1.46153814926805   -1.75314407311218
H           2.11172443569636   -0.27952312901533   -1.83882597186673
N          -0.70680626150121   -0.42941169406686    2.97504475111956
H          -0.91005113900381   -1.28337360241368    2.36772073137463
H          -1.19457373166308   -0.44919607824890    3.86528470473248
H           0.29800256020948   -0.31482125984976    3.09225273216820
