    26
        -50.45278704  Gyration_radius:  2.49729597735 Dipole_moment: 1.349
 S          -1.55588621346186   -0.48616449989241    0.98449831012074
O          -0.60837881493697    0.56549455345944    1.32658651934446
O          -0.90538486792992   -1.74316644827839    0.69720859038950
O          -2.46268663256560   -0.03959145398324   -0.07144714947417
O          -2.46911679339468   -0.71771696694714    2.24989876718621
H          -3.05483667062201    0.02914724510267    2.19075892369275
H          -1.89165323526826    0.15614972685317   -1.41431386193211
O           0.50462803426593   -1.25774496609137   -1.49231493006635
H          -0.01151760770973   -1.69627674846572   -0.78380432337242
H           1.16225371777054   -0.71134194148808   -0.98199353962471
O          -1.31269237185439    0.24278164212562   -2.26942128271809
H          -0.48780492964130   -0.41240227075181   -2.05957368666598
H          -0.95027742632150    1.20243848035555   -2.29501003572917
O          -0.28891826878528    2.57446920553239   -2.21873314668854
H           0.48235284379022    2.70927178189797   -2.77196424060132
H          -0.00019524196218    2.73155482443317   -1.27877828113315
O           1.83096430555959    0.09172963063104    0.31672249145659
H           2.16796891589732   -0.69614275324433    0.79199551199297
H           0.98258304607475    0.27204938293833    0.76971549473606
O           0.58287232614464    2.73918378219026    0.24600780687124
H           1.44512381218949    2.30856167273068    0.26382974100263
H           0.00045186967469    2.13560658526968    0.74079387931111
N           1.83999541098792   -2.27756466331672    1.65705197113802
H           2.20447272936295   -3.14032715941842    1.27179815317514
H           0.83848096324561   -2.26079099376015    1.46857142100630
H           1.95720109949057   -2.31920761787615    2.66191692657636
