    26
        -50.44635397  Gyration_radius:  2.46925629281 Dipole_moment: 2.164
 S          -1.49811194308015   -0.16459334572072    0.43499102575436
O          -2.22600450280698    0.52843522886459    1.45204413453890
O          -0.88833470798646   -1.39722340040177    0.87032652394103
O          -0.39918447361627    0.76005236242433   -0.15322655820237
O          -2.35104397755105   -0.43877486258801   -0.79683815903213
H          -2.11972799607831    0.23519702699012   -1.55209551854215
H           0.31124402660694    0.98223154615184    0.51943344353675
O           1.34800711805986    1.29600162110810    1.67053408761376
H           0.87706039388714    0.78891986784312    2.40808216351205
H           1.29048145830980    2.22738916172313    1.89347004725315
O           0.72380785073809    0.09707029478871   -2.85170839807824
H           0.64370414465680   -0.76242703172638   -2.40731530733907
H           1.40400667387323    0.55040078329736   -2.32908293150265
O          -1.68858263468148    1.05832445588344   -2.69434693421225
H          -2.10083373013659    0.73419547686420   -3.49895457654858
H          -0.72055298641916    0.79843572522724   -2.75204526085537
O           0.79577671534713   -2.01946987041185   -1.04615074696670
H           0.80499168548006   -2.97322859828451   -1.13974203196266
H           0.16676807287922   -1.81854908507836   -0.31874015815072
O           2.57341926729245    0.24022084121396   -0.76182993938115
H           2.39827386922727    0.63240162232994    0.09946943026064
H           2.18353870380885   -0.64350476537015   -0.73773164103711
N          -0.16840758715709   -0.02135007596939    3.33678712989419
H          -1.05593640606948    0.27207489404296    2.92955398758761
H          -0.24210506462024    0.03387251395120    4.34546714934648
H          -0.06225395996232   -0.99610238715153    3.07964903857142
