    26
        -50.45514399  Gyration_radius:  2.42737140951 Dipole_moment: 4.701
 S          -0.27605183407606   -1.22842223342874    1.01809219038562
O          -1.57910109240775   -1.37846197709105    1.57901771886250
O           0.32888922740725    0.07105439642149    1.24077639166988
O          -0.33654414272631   -1.46388438143643   -0.51781353431558
O           0.66870996427044   -2.31340851133893    1.47715319736816
H           1.62652197237037   -1.95208016883629    1.23293797232072
H          -0.96682988110622   -0.79761537467858   -0.94140716154393
O           2.80608930232275   -1.20532516256141    0.85044902189637
H           2.71387749322480   -1.03047792262905   -0.14764863498965
H           2.63188227978105   -0.35943626986031    1.27521972415452
O          -3.03544122475025    0.77353570467515    0.78530349868716
H          -2.73929835090320   -0.03084929193670    1.24504153212711
H          -2.50738114915257    1.50327512922518    1.17176933662016
O           0.57153342908479    1.56346640637817   -1.02620741256704
H           0.55303817881372    1.09403031216233   -0.17562719373722
H          -0.28097120289851    1.38189924009354   -1.43800435768921
O          -1.94552516472231    0.28590378760338   -1.47421316080093
H          -2.44459621750445    0.54593440927840   -0.62717683811436
H          -2.60292597196563   -0.08760101120110   -2.06445501572364
O          -1.04644411021992    2.40961568669964    1.58955044971132
H          -0.49433025140874    1.61849774025715    1.69918065489639
H          -0.64459045200872    2.91202800507212    0.87525784109851
N           2.35424810577985   -0.64519412993449   -1.66826547529127
H           1.66112006130732   -1.32212780552254   -1.96246551592500
H           3.08897003760846   -0.61018417658526   -2.36255252007646
H           1.89515099359584    0.26582760986676   -1.63391269940150
