    26
        -50.44674079  Gyration_radius:  2.54364614264 Dipole_moment: 6.331
 S          -2.02939707406277    0.76158893589549   -0.78315352249246
O          -2.36800838145742    2.03697680887574   -1.30642766097875
O          -0.91763787621285    0.79721965461241    0.15689380247719
O          -1.68213128045406   -0.24284429383246   -1.89682335189138
O          -3.22074405542290    0.09322935199310   -0.09500382884371
H          -2.91725012443365   -0.83641228905719    0.16087493081739
H          -0.93351169840556    0.18397927324419   -2.43599807219058
O           0.31328023549157   -1.54266807985181    0.26247679747818
H          -0.10926816105806   -0.66355700197821    0.20016696776508
H           0.89688433077185   -1.47951706172561    1.05384077887043
O           2.02981890911019    0.16784007821698   -1.20186229284347
H           2.01991958260263    0.77161903110676   -0.44074455302557
H           1.60222171320946   -0.64727223504409   -0.89320402306202
O           0.22497601886547    1.07937000367305   -2.88739852665137
H           0.99709216098104    0.76710365240123   -2.33995315202831
H          -0.00453708944369    1.96599789698936   -2.59979995043908
O          -2.25149172378594   -2.17931100316980    0.62230300711262
H          -2.31683199657128   -2.28938088026386    1.57369532081884
H          -1.28765281896511   -2.13238505081977    0.40814412573941
O           1.41894964189297    1.83309708759532    0.95611770794632
H           0.51134957534116    1.53357830103177    0.75612841726126
H           1.39864036312806    2.79091442469525    0.92892507840180
N           1.98172531223795   -0.83788596351206    2.29574410555914
H           2.93632052077075   -1.14645313922656    2.15884888383750
H           1.76304979703386   -0.93642185420342    3.27902199804259
H           1.94423410881903    0.15159434235072    2.06718703230498
