    26
        -50.46445313  Gyration_radius:  2.34710842998 Dipole_moment: 3.913
 S          -0.04270493541805    0.97616684625037    0.51020530436969
O           0.75822947512740    1.02222196726219    1.72399362061460
O          -1.46710427217987    1.08322249897004    0.74371291060914
O           0.23958031742234   -0.44027105492219   -0.11640902995076
O           0.42825281204599    1.90976717001664   -0.51120014074028
H           1.60781848258263    1.27062958364211   -1.22753118658596
H          -0.32705411739130   -1.14961313486820    0.33365830748667
O          -1.15613207265088   -0.29726001400352    3.08385282392096
H          -1.86382647598865    0.31283358835451    2.85411910041466
H          -0.34798227112749    0.16246311511434    2.78824032336417
O          -2.57823870856069   -0.49220867733667   -1.03209866001636
H          -2.21943285602042    0.14931043701003   -0.37795440988124
H          -3.39520924143901   -0.11134495557799   -1.35857447334483
O          -0.34224067555867    0.28477910380047   -2.68319424464858
H          -0.32579122691351    1.05994575654880   -2.10473651529912
H          -1.04523088882175   -0.27278711158649   -2.31796779060990
O          -1.31627675015541   -2.05833083352287    1.08052621886488
H          -1.36320031207490   -1.55082889833421    1.92560473783439
H          -2.09794241546958   -1.83852958654235    0.55856100135887
O           2.85449623222776   -0.30964889963118    0.78241967794115
H           2.66802701970730   -1.20074293438344    1.08676508124904
H           2.17311282820007    0.25716281613982    1.21288323400556
N           2.19555668842398    0.48529374909533   -1.66922802945273
H           2.56134938576186   -0.02946770199670   -0.82433665145481
H           2.93157348742557    0.82600865807856   -2.27877800845847
H           1.47037049082427   -0.04877149755596   -2.18253319158544
