    26
        -50.45030664  Gyration_radius:  2.68610596216 Dipole_moment: 3.215
 S           0.63870943056173    0.31308926346838    0.29110925182516
O           0.66647375076157    0.56204653928503   -1.12900502265054
O          -0.56158788535073   -0.36840510497839    0.72543159232017
O           0.83546248755155    1.59555984859327    1.06719555814974
O           1.86694568307834   -0.53075082536734    0.64127274106457
H           1.70240944024773   -1.17485083551713    1.41557415937409
H           0.20630285947324    2.41899316153347    0.71449515355691
O          -0.09253186828693   -2.19492906614834   -1.14862628260427
H           0.45651731978101   -1.60309197750856   -1.67072828182819
H          -0.46359696707661   -1.62445494171216   -0.45180667531178
O          -0.63913063750691    3.34326227311447    0.14386283275475
H          -0.24060655568089    3.45202616163045   -0.74775495371725
H          -1.45876977151215    2.78445076913514    0.01578036569106
O           1.58049373980489   -2.32890407507349    2.40463725383284
H           1.25099965231724   -3.03364510315741    1.78594771442996
H           2.47100662736944   -2.58704005190707    2.65423792428215
O           0.76425142639269   -4.05440041885520    0.58636175622432
H          -0.04601847393520   -4.52508795610045    0.79073605586239
H           0.53790836806852   -3.44380876144426   -0.14994738870954
O           0.47908886372908    2.97594894531108   -2.25287269129248
H           0.67708336018114    2.07769720577155   -1.92023690194793
H           0.03996814840776    2.86010883213344   -3.09703426817134
N          -2.53454240321520    1.51328252505887   -0.16721158501287
H          -1.95104838775927    0.76056599580871    0.19793674695796
H          -2.81698547384019    1.25261665760688   -1.10365099501282
H          -3.36880275356320    1.55972093933764    0.40429594993249
