    26
        -50.46419308  Gyration_radius:  2.45057624229 Dipole_moment: 2.722
 S           0.05721209833798   -0.18031469061653    1.37583105752554
O           1.10206460979829    0.77897455016385    1.07171536687431
O           0.15234713413255   -1.35908411046279    0.51914057385978
O          -1.27807040879926    0.41118338320034    1.29576263555924
O           0.28930964069272   -0.63787522460929    2.84719195463572
H          -0.53924416757239   -1.09989652273617    3.08412068722155
H          -1.99645474797963   -0.30398414542521   -0.08580722494675
O           1.27728806576997   -1.09181870944077   -1.72546417217892
H           2.06048278405998   -0.39364001322660   -1.50440144523624
H           0.86703402727875   -1.30749966778478   -0.81432124250260
O          -2.25524793349858   -0.81754141394804   -0.87563440358438
H          -1.91591251638832   -1.70124566870232   -0.71017366246812
H          -1.34127473837041   -0.09620197881739   -2.13143014589779
O          -0.57468981301483    0.34278600509837   -2.57167112339275
H          -0.42972516388473    1.16140149341150   -2.04302667619890
H           0.51385607692428   -0.51688317853156   -2.20217502369683
O          -2.25377771121673   -1.33180105840996    2.99752701098237
H          -2.80564579009106   -0.95719288473848    3.68762478443839
H          -2.17288680310187   -0.65069260314304    2.29992534525621
O          -0.24752950344104    2.22421923407393   -0.70689519455359
H          -1.11039600781526    2.31362639661366   -0.29405744411653
H           0.30533645042310    1.79188232129168   -0.02638661974677
N           2.95843892397067    0.65939157268124   -1.00597819002847
H           2.92280130398659    1.51853850985757   -1.53972435195115
H           3.92574355663919    0.42228254156943   -0.83102523355047
H           2.48894063315830    0.82138586263471   -0.11066727230725
