    26
        -50.46419300  Gyration_radius:  2.4506890224 Dipole_moment: 2.724
 S           0.18342903684883    0.89924646844946    1.04166045676394
O           0.32163920263203    1.68340380169807   -0.17095706426544
O           1.02505955436215   -0.29343423808769    1.00198579984644
O          -1.20834504873903    0.54170565020493    1.31440155554021
O           0.68320249708462    1.79918297224356    2.21143418254706
H           0.37427382441184    1.33531778341295    3.01487072254487
H          -1.29053759075766   -1.14912332446385    1.04901464001429
O          -1.15450789316044   -2.10157595933437    0.87904843253838
H          -0.31109903451875   -2.30218033568851    1.29362377892760
H          -0.97070564457807   -2.17590649735836   -0.82203028058453
O          -1.67483133141308    0.58079404914902   -1.53875288833503
H          -0.96378380827995    1.08445165659945   -1.09551395575585
H          -2.37215823356429    0.52005513906196   -0.88071998357275
O          -0.69651647651838   -1.89516479549848   -1.72764941142116
H          -1.12437360700313   -1.01574200398130   -1.84710737920735
H           0.69345991219723   -1.59222282554654   -1.53768885242893
O          -0.75405014063404    0.35672625598980    3.89219669191719
H          -1.40502090054116    0.79001856565549    4.44865983041856
H          -1.15638722898978    0.26672760657279    3.00496883734956
O           1.65338511349940   -1.21162016388803   -1.26458141264271
H           1.50415852747408   -0.87498294453813   -0.31092657854200
H           1.77851801781245   -0.31838351242071   -1.84395650351393
N           1.75804966196876    1.01473886990278   -2.46616539680828
H           2.64127812121282    1.45893766424095   -2.67855759620435
H           1.31223735889446    1.51532012089067   -1.69227508035949
H           1.15362612030190    1.08371003673342   -3.27498254475914
