    26
        -50.44900207  Gyration_radius:  2.51392611269 Dipole_moment: 5.214
 S          -1.64512583685415   -0.73585251756595    0.50368314811713
O          -3.00226730919328   -0.30796097209581    0.49388936182257
O          -0.75575318723029    0.01732696933033    1.36116028878804
O          -1.07222479429161   -0.68553713876622   -0.93929327263160
O          -1.55971997982319   -2.21773974266403    0.85778043088864
H          -0.58414375839552   -2.54154858425870    0.86160021817874
H          -1.63436435387829    0.03452327664291   -1.42861326239869
O           0.82317927472533   -3.05437804519410    0.72157437271601
H           1.29102652871549   -2.38885197966760    0.11759858932640
H           0.77718060037847   -3.88203303943041    0.23819634334872
O          -2.54187513468588    1.16392757467385   -1.76898582228178
H          -3.29575990200664    0.88293517958985   -1.23455245341184
H          -2.07580599726673    1.84179296234701   -1.21229463999401
O           1.56144520274265    2.53366058179677   -0.44328631705537
H           1.95472501689217    3.35413807885670   -0.14194280811940
H           1.76550135013376    1.85882735208038    0.23105399059363
O           1.83614460137444    0.58761053399259    1.45439885079253
H           2.08972834580269    0.60111863918639    2.37855946040353
H           0.89032787026630    0.32675114053685    1.44101485239780
O          -1.12693457561844    2.41487292425149    0.04497233191384
H          -0.20648110851272    2.54326127522119   -0.25906473476722
H          -1.08943123606635    1.68759872312999    0.68333139665726
N           1.85778558997982   -1.24639003880343   -0.86634236057817
H           2.53822859305550   -1.35918752940248   -1.60640623797072
H           2.20421393024505   -0.54595492307461   -0.21826649142970
H           1.00040026950694   -0.88291069070309   -1.26976523530281
