    26
        -50.47607341  Gyration_radius:  2.42603055618 Dipole_moment: 4.299
 S          -0.73156649066350    0.53902978599846    1.31472357773694
O          -1.48140530338038   -0.57712094270748    0.78522022519016
O          -0.29649140698758    1.46193918387933    0.26015083055952
O           0.42455660040035    0.11042846781184    2.10680890129297
O          -1.68944494944630    1.33322382916242    2.25626473590281
H          -1.12116953836741    2.05441916807994    2.59303672308772
H           1.32387183822180   -0.88860644930769    1.25794214241901
O          -0.31355716358265   -0.87925193012112   -2.74731459425140
H          -1.02804860243179   -0.29431058249970   -2.37127349971217
H          -0.50730519524668   -0.97660426452257   -3.68037435095952
O           0.50236909884070    2.77530738837713    2.55938536200093
H           0.85433808684708    1.88142090947959    2.68496489203369
H           0.50412670062880    2.91162359888106    1.60454712704747
O          -0.32080300495093   -2.58011153987776   -0.56889071201435
H          -0.33573233707141   -2.16984191173290   -1.45208326723383
H          -0.90327664620856   -2.01560068379318   -0.02272152639120
O          -2.08070820995721    0.64706005892169   -1.54422169616331
H          -1.46362525485409    1.20796064397024   -1.03858315695549
H          -2.41417625687594    0.04398501727473   -0.86585161315744
O           1.62374013077932    0.47320322400837   -1.33532064573236
H           1.07471518543027    0.03590042675027   -2.01108496703239
H           0.98945782920547    0.98624095862837   -0.79369845314436
N           1.78003512845743   -1.41778155280820    0.46525297489131
H           1.03660331301779   -2.07957915316537    0.07774781943769
H           2.62473857413686   -1.89434780086953    0.75923553650249
H           1.94875787407118   -0.68858585971212   -0.29386234531353
