    26
        -50.45356130  Gyration_radius:  2.45996758732 Dipole_moment: 2.280
 S          -1.34426536331049   -1.03564306133012   -0.92397295193387
O          -2.41938653060129   -1.79364098653472   -0.38384002715252
O          -0.08173203728250   -1.15311703666609   -0.23554911485142
O          -1.75557608679554    0.45621879923948   -0.95088035388653
O          -1.13523839829956   -1.40865986064422   -2.39787471215169
H          -0.21998486566198   -1.07267022173714   -2.67835010311711
H          -0.99168309678321    1.07773395146678   -0.73550657810217
O           1.21339373072975   -0.61574143997864   -2.99320321291001
H           1.64943408495153   -0.08452534495010   -2.27050213756287
H           1.76961110427212   -1.38489798104639   -3.13053546884903
O           0.19252690766637    1.25773043609507    2.15372225616672
H           0.93769403519932    0.63966548168330    2.09299502240984
H          -0.62108877437057    0.69346300288570    2.20379611625024
O           1.98286669795794   -0.69950475924340    1.32477883716277
H           2.32676331557144   -1.51807812123489    1.68437482229031
H           1.20087551033570   -0.93896249931152    0.78559473367300
O           0.07317844841118    2.11372431917132   -0.24951534193835
H          -0.30011148003166    2.99677444479980   -0.25709906326017
H           0.14215481946804    1.83490102693959    0.72916446311505
O           2.34648536951198    0.76049309355497   -1.05796056913029
H           1.65056538449406    1.40738709242479   -0.86777090392502
H           2.43960865300071    0.24729378008228   -0.24086801793432
N          -2.02652642718224   -0.29223758526558    2.12076543586651
H          -2.13040262565066   -0.92552011428701    2.90512374800552
H          -2.04512267112270   -0.85443890309214    1.27389054041753
H          -2.85403969447976    0.29225249697033    2.09922256134419
