    26
        -50.46161916  Gyration_radius:  2.45401422208 Dipole_moment: 8.344
 S           0.64268631769251   -0.43229955235209   -0.07300490274497
O           0.91336589272491   -1.44831114255713    0.95201283498657
O           0.40855448996167   -0.99538777723381   -1.38301945633714
O          -0.65563743691933    0.25781914869150    0.43912534174914
O           1.68226844047062    0.59375708653248   -0.08243808761897
O          -2.02151206431473   -0.84652080111217   -2.62833914895812
H          -2.48815163250679   -1.47230327084571   -2.06576778691898
H          -1.08361112671964   -0.98764557388591   -2.41735499902234
O           2.07070111807066    1.69731868831971    2.23649116645309
H           3.01413283770228    1.64307475432794    2.40022787769576
H           1.94455734210832    1.38692258527966    1.30109405498636
O          -1.47221706469648   -2.64695754240055   -0.28320907878628
H          -1.08127595432904   -3.17697364313066    0.41263132133336
H          -0.73713629058572   -2.13965143740822   -0.65686396577291
O           0.85710858279975    1.66084209373928   -2.40603089038176
H           1.28673511573726    1.39092609298429   -1.57364763930249
H           0.90781268974060    0.88771777098318   -2.97437337606491
O          -1.64741094472032    1.52935902439693   -1.47065253945261
H          -1.98965572015028    0.77095176911127   -1.99834254020378
H          -1.10926385930262    0.82280197536392   -0.31989581656717
H          -0.81202799679849    1.79953429648427   -1.91433633200273
N           0.25999803500633   -0.06028054647090    2.95349165497737
H           0.56166049779494   -0.78535452390840    2.16938416838213
H           0.18507669138477   -0.46403055673474    3.88136503929478
H           0.99313626284553    0.70368328939072    2.88230689437376
H          -0.62989418299279    0.31100777243318    2.61914620590139
