    26
        -50.47547318  Gyration_radius:  2.37912218537 Dipole_moment: 2.862
 S           0.86703295834702   -0.77516708629009    0.91553060224550
O           0.66942732687927   -2.11859384510594    0.42624006860328
O          -0.34679607443271   -0.20977333917316    1.48777691619507
O           1.41399368049779    0.10905198124370   -0.12356303226513
O           1.93629889051280   -0.83615546433335    2.05922464361784
H           2.04812774334687    0.09183033938521    2.31426739759666
H           0.29431419368314    1.13936381431605   -0.91832079286082
O           2.05469085540578    1.86244605063712    1.69892860408693
H           2.90823023985778    2.27629850787126    1.55521662149589
H           1.84641457330638    1.35521280585148    0.88444201654415
O           0.68434083137486   -1.73237099524050   -2.17758602752073
H           1.32142083813407   -1.01216448779997   -2.20508341075231
H           0.72973486158442   -2.04940728124568   -1.24759639013766
O          -0.80923827653712    2.42519880371521    1.32276054108474
H          -0.79411816563015    1.47165036675419    1.52867389195329
H           0.04537601368329    2.74740317795830    1.62756899503218
O          -2.11897994838192   -1.81630624998325    0.41904829290426
H          -1.61713422995056   -1.17281559881808    0.96600859879933
H          -1.53376966481657   -2.58109808615823    0.38768062651101
O          -0.49535481361920    1.63623019508831   -1.21144467803256
H          -0.79001161770587    2.09690084782409   -0.39406943665214
H          -1.36581546844949    0.40855342957883   -1.63572023454627
N          -1.69370952454881   -0.58151276278754   -1.88480162902838
H          -2.02698178558236   -1.06318375433653   -1.00058534858416
H          -0.82154753596119   -1.09540775459916   -2.18860290244712
H          -2.40594590099358   -0.57618362463894   -2.60599395416749
