    26
        -50.46161921  Gyration_radius:  2.45416781327 Dipole_moment: 8.340
 S           0.01007143910998    0.05677615501647    0.77536530289710
O          -0.18056712602704   -0.41662215015620   -0.69565375965876
O          -0.51716883830409    1.39358904011035    0.92702452181265
O          -0.72843186983745   -0.94652868145994    1.55274521642634
O           1.44248963766335   -0.01479980266674    1.05234126889007
O           1.97908932327395    2.30881322402888   -0.18514320900181
H           1.40136042293448    2.89943858591241    0.30544719051604
H           1.95462000373207    1.46661238058406    0.30518047097177
O           2.44889456429419   -2.38362513861980    0.70411555515467
H           2.92697492286356   -2.58848874239855    1.50988338332405
H           2.17116867278692   -1.43380414828023    0.79371101948358
O          -1.69951276931244    2.74565172722427   -1.13506331634237
H          -1.29795561701447    2.49562816023346   -0.28634487258487
H          -2.50834628967097    2.22622780970396   -1.17730741104926
O          -2.99695772980150    0.43586053152643    0.28909104053371
H          -2.14446857754202    0.75865211063843    0.61545619792947
H          -3.24981845252481   -0.25951772732850    0.89771334170364
O           0.40794346283942    1.49559637570349   -2.19393247499972
H           1.12542340123466    1.89098070716985   -1.64935040983365
H           0.06884862820019    0.34421573812349   -1.37385609556287
H          -0.38209437876039    2.06283952804302   -2.03627788934111
N          -0.05803093184713   -2.95912238533310    0.18907565357780
H          -0.48213489900432   -3.86905688108973    0.33643003391202
H          -0.44449424642515   -2.16715510462495    0.86350723498579
H           0.98869206835369   -2.94656581021114    0.36372671271231
H          -0.23559482123687   -2.59559550184785   -0.74788471646047
