    26
        -50.44949935  Gyration_radius:  2.6367888079 Dipole_moment: 3.071
 S          -0.83884324598688   -0.46122272633110   -0.91272601653077
O          -1.36592166188209   -1.10862723745199    0.24269948472056
O           0.48944645698276   -0.86689553233288   -1.30629297758600
O          -0.82419394307202    1.07334868412894   -0.71074831344358
O          -1.80157571840873   -0.64192304787576   -2.08404825503140
H          -1.40687635682099   -0.21513780347543   -2.91611993641519
H          -0.62034449592074    1.33502924745674    0.26829122073412
O          -1.48403704330883   -0.23440988943509    2.80749183361615
H          -1.70753781073962   -0.66910341034123    1.96854489658314
H          -0.77266901303297   -0.80216550833549    3.18808415171989
O          -0.66119836164690    0.39411219170023   -4.11956609614484
H           0.12642773574116    0.83272339330144   -3.70652120353481
H          -0.31965751799237   -0.30740552393876   -4.67893975012631
O           1.32576867742524    1.27122635270793   -2.63000741423196
H           1.22193424515373    0.44333693710353   -2.11834735239275
H           0.96757970172619    1.96827464063911   -2.07443286894579
O           0.57556653770956   -1.86507186127936    3.26158068110012
H           0.31413922663301   -2.68738691272886    2.84356665727635
H           1.12732955948762   -1.38629961457969    2.59379787594518
O          -0.32230606954799    1.72314872890707    1.66489566894355
H          -0.80645348290840    2.52059110258058    1.89044514456221
H          -0.75927758028616    0.96900500677483    2.20446683832124
N           1.81057750010848   -0.48326075307500    1.28879818748062
H           1.52404161130079    0.47541211112941    1.44919397986709
H           1.39208679238595   -0.78714213791346    0.41440728876912
H           2.81599426694464   -0.49015643731232    1.17148626472497
