    26
        -50.45774978  Gyration_radius:  2.449911286 Dipole_moment: 7.087
 S           0.87895799671411    1.07401385312628   -1.12532168817047
O           1.05613673020719    0.76381645600763   -2.51289731849936
O           1.36719381707714    0.02617975036138   -0.23406933011561
O          -0.53411803276499    1.37236363567668   -0.79701271476468
O           1.68120844149930    2.37484742361439   -0.78997356627674
H           1.45419942351919    2.54694872778690    0.13525833197481
H          -1.42348209892082    0.11962549091691   -0.94687181764049
O           1.61301676545203   -2.52662546690975   -1.10378741363148
H           1.77954703093844   -1.60578278477583   -0.83046787535827
H           1.23613767483371   -2.96404513455023   -0.33576394480228
O          -0.19422478264312   -1.56032759813373   -2.78927051681690
H           0.47781579467390   -2.11835361160091   -2.32986067413604
H           0.26325694453553   -0.70286448236991   -2.93214495898920
O          -0.38049100959753   -1.48998191258576    1.01825359114335
H          -0.69589851772724   -0.96296084729219    1.80155068768152
H           0.37520460554726   -0.96256445490216    0.67175166773750
O          -1.73260539909935   -0.84785293069574   -0.97298963367493
H          -1.17126926087716   -1.24517170238354   -1.80880272217551
H          -1.27148520736883   -1.24480046513258   -0.09509981022812
O           0.04913225792434    2.58740838317091    1.40653767143832
H          -0.33334014496297    2.12828401475827    0.62250154544607
H          -0.33813947599340    3.46547405132108    1.42024187642480
N          -1.01420073118918    0.23167981863339    2.96150540961132
H          -1.98938689657798    0.45315226495147    3.11803726647844
H          -0.55925327508932    1.06272406542778    2.59004229967634
H          -0.59391261980826    0.02481346535105    3.85865361791271
