    26
        -50.45774964  Gyration_radius:  2.44982590653 Dipole_moment: 7.097
 S          -1.21310467018524    1.19089974998412    0.54897741402782
O          -2.30860711323901    1.61472869634027   -0.27143924331097
O           0.08825638732972    1.38309841429946   -0.08352343541982
O          -1.34555651004304   -0.22332025851234    0.96869919268066
O          -1.21255825801714    2.03174320611398    1.86848681985555
H          -0.49397315494331    1.63935616325418    2.38521705439384
H          -1.21581448920859   -1.18124687901036   -0.23446512521908
O          -0.94994326539467   -1.57179650117654   -1.13402378866308
H           0.09259397618412   -1.33882604212270   -1.16985494068215
H          -1.42941165006594   -0.89534204340789   -1.82827332355446
O          -1.97728677584492    0.22582139635206   -2.50841640854951
H          -2.32088833054451    0.78421030246674   -1.77703841909204
H          -1.20552126869653    0.73285834164465   -2.85654857773326
O           0.30689398074034    1.55003083031313   -2.77784009134930
H           0.24885512457963    1.74678339379510   -1.82479020148991
H           1.07618379098903    0.98386230571075   -2.88254247275543
O           0.31908259417801    0.01661965579853    2.92898730777637
H          -0.30303826101613   -0.24176055529831    2.20919144130262
H          -0.08229202628325   -0.27600085736817    3.75023587902750
O           1.38605060745320   -0.72182886802950   -0.98047923552178
H           1.04854880013842    0.13659304534061   -0.63606419811195
H           1.82319212852923   -1.13801309147179   -0.18883494163063
N           2.34827558688584   -1.57263911710134    1.36264039206774
H           1.81144339338219   -0.96977164950411    1.98230692915180
H           3.32930232880526   -1.37387954096347    1.51234027019143
H           2.17931707439055   -2.53218009756225    1.63705170224110
