    26
        -50.45606054  Gyration_radius:  2.4949703272 Dipole_moment: 3.773
 S           0.00545635007534    0.19031173727978    1.41425648185461
O           1.06781545172372   -0.09399988970944    0.46208947262292
O          -0.32570321935429   -0.89822314282582    2.27583190373344
O          -1.23109506933099    0.64411385057029    0.62055643803054
O           0.37271306186173    1.41926364974252    2.22597887990140
H           0.89267343211465    2.03966990044479    1.58010505729506
H          -1.46335964077308   -0.06553742050385   -0.12237540626887
O          -0.47366669022858   -3.59737006542264    2.11447251847610
H          -1.38468409289976   -3.83063938762794    2.30120440667194
H          -0.37521362319978   -2.66388293229321    2.37063548917978
O           0.69676218628192    0.11759139405253   -2.19605466558752
H           0.91245478953023    0.07680757182410   -1.24204998211803
H           1.23771624029163   -0.55425513006933   -2.61620987684179
O           0.27484980244069   -2.63299515547918   -0.30157822718838
H           0.79073490510241   -1.89383875027966    0.05115880991407
H           0.04474734160970   -3.18085768079855    0.47439154281114
O          -1.56707069408783   -1.01848451717845   -1.20879418553697
H          -0.99666202727311   -0.58531559513956   -1.87115234060879
H          -1.01812385157022   -1.78842391765674   -0.89662855472441
O           1.62474913554724    2.69167146426292    0.46681339680910
H           2.15094882552625    1.95099042360141    0.15031697605599
H           0.91235609223572    2.84422368453029   -0.23016012902564
N          -0.32756774608907    2.77248114660034   -1.30134487852308
H          -0.06787586723772    2.08467745979126   -2.00044724597047
H          -0.67461011835280    3.59657671603324   -1.77381515940657
H          -1.07834498395358    2.37544458627831   -0.74720071157335
