    26
        -50.45783934  Gyration_radius:  2.46276476616 Dipole_moment: 3.714
 S          -0.50908587974382    0.30477496162427    2.09205112989696
O          -0.54980767015191    1.49397115845742    1.26336670286380
O           0.83004708474595   -0.18303634119502    2.34328441865260
O          -1.38253972571247   -0.74940268484592    1.58628056986825
O          -1.09893852266316    0.73428252487368    3.49589475825669
H          -0.91482817005122   -0.04378051731643    4.01028613526939
H          -1.95709935687152   -0.86799908880783    0.20910316729936
O           1.23238835450130    0.70851290373455   -1.69077865168696
H           1.39175060744725   -0.05225189581217   -1.10340169904467
H           1.58003781245728    1.46401688325772   -1.18087144891277
O          -1.28979860569653    1.38663497959893   -1.28600251779298
H          -1.14459641347430    1.63065621578326   -0.34852844819214
H          -0.37806335499764    1.17440249473193   -1.61677018243278
O           1.71828594204273    2.52388072753357    0.26685936469520
H           1.56231120043667    3.46936031509767    0.25116261149422
H           0.96507109202738    2.13534743400991    0.75507532605773
O          -2.18424596682160   -0.87854457411045   -0.78970810329182
H          -1.43429618805773   -1.50048778392294   -1.23055702163061
H          -1.91891807315209    0.10616556731438   -1.09372857936279
O           1.66371642645977   -1.29585378428894    0.15618940811336
H           2.60780814510986   -1.38935622112718    0.29969133644460
H           1.31537608935491   -0.90161656429611    0.99568575344388
N          -0.25902187109906   -2.21468409520142   -1.77174683823848
H           0.09816960271794   -1.73606371305411   -2.58999354039485
H          -0.38140812071457   -3.19425107583589   -1.99058548681830
H           0.43768557192477   -2.12467781617814   -1.03225815456069
