    26
        -50.45783905  Gyration_radius:  2.46272408234 Dipole_moment: 3.708
 S           0.50610863149799    0.31069367998969    2.09175768007372
O          -0.29417633940327   -0.87361537904413    2.31731823709466
O          -0.22212804128167    1.39415769389242    1.46047338690356
O           1.74749941103548   -0.00086843249285    1.39052278103332
O           0.92556915978260    0.84508896794656    3.52048588511077
H           1.26849899811231    0.05002336574642    3.91303071035327
H           2.11758798184737    0.37648391812610   -0.00971030655588
O          -0.63243098877740   -2.01532368252053    0.01546533527639
H          -0.46075261962996   -1.58806190442795    0.89268604571201
H          -1.34247543810930   -2.63965592822391    0.17901351963068
O          -1.61371623597032    0.06577870823313   -1.50787092218572
H          -1.25050884306530   -0.70920415112735   -1.04241497215667
H          -2.25682992628446    0.43011952476281   -0.87126074749480
O           0.13630027145979    2.00379650587659   -1.10059022172780
H          -0.00417519512360    2.01867372856457   -0.13127683483518
H          -0.53730588733394    1.35043974524892   -1.42478890591667
O          -2.78211886392316    1.05650069362583    0.73213822355818
H          -3.18209673361861    1.91756635154076    0.86289413755384
H          -1.88670824614510    1.11385013683249    1.12141991882241
O           2.18820464505721    0.60453171180310   -1.00592287954045
H           1.38695907664382    1.29207253159887   -1.13939233962124
H           1.86209524305302   -0.28059353658896   -1.50895249767926
N           1.22529090325268   -1.47258265195642   -2.10860954320433
H           0.69127796401977   -1.87226713631107   -1.33696668936065
H           1.84312211931430   -2.18060660373451   -2.48200297112477
H           0.56690892359516   -1.19699785736396   -2.82744600971941
