    26
        -50.46901128  Gyration_radius:  2.39483125367 Dipole_moment: 8.166
 S           0.49914789212642    0.53701796269442    1.21227474070741
O           0.13897361985575    0.78037918781634    2.68154055291082
O           0.87946078362990   -0.86441809164194    1.03440706622657
O          -0.68153864450640    0.84709061315842    0.39481211273578
O           1.60864483769518    1.42074525835960    0.87017146207708
O           1.34199364918492   -1.44104383580367   -1.43705086202936
H           1.89877983528678   -2.22110444165760   -1.46432312882330
H           1.15446581021846   -1.27597573863288   -0.47109156242340
O          -1.56312976732096   -1.29627457479482   -1.01293457306740
H          -0.77734309046082   -1.52503275524101   -1.51943037156494
H          -1.33404425526054   -0.47301007728684   -0.54503841025907
O          -0.48984404613902    2.28755605527122   -1.79822767138181
H          -0.68262984329448    1.76229073185914   -0.98500283738735
H          -0.66492958792362    3.20145674333801   -1.56835938384810
O          -1.27797687232915   -2.43340881689457    1.44914593520111
H          -0.37943969294499   -2.05924764714824    1.43738686029756
H          -1.60181880135087   -2.29567533852356    0.53888069945320
O          -2.18999025301562   -0.23043553612001    2.54395830664157
H          -0.79454764431954    0.39452969575420    2.76729709455048
H          -2.45637613634319    0.22325408803863    1.73787116811472
H          -1.97328186363921   -1.16209853442328    2.26520016543043
N           1.89812175028603    1.16956328670881   -1.66040079752610
H           2.73169079657875    1.52376664280509   -2.11627915782062
H           1.02444216874399    1.66923243203821   -1.96786412006846
H           1.77618455578055    0.14084753839560   -1.79919405898860
H           1.91498479941115    1.31999517192006   -0.58774921916049
