    26
        -50.45323650  Gyration_radius:  2.4367086335 Dipole_moment: 1.628
 S          -1.05160084000453    0.65769938635407    0.74925268721296
O          -2.43737354162813    0.81435636334970    1.07264392727116
O          -0.80125705120046    0.56364248049304   -0.67312046572870
O          -0.50181505013922   -0.64482054904984    1.42108945823143
O          -0.20028525321660    1.72034130188676    1.37637588648963
H           0.78021569468507    1.28177162356583    1.68383915598899
H          -0.89738829447124   -1.43667107540821    0.95219257936525
O          -1.62615719701355   -2.55437247368531    0.10233820836161
H          -2.12798566979553   -3.16776791240099    0.64341866990773
H          -2.29642938256574   -1.98718160469810   -0.37132209451875
O          -3.26103358611036   -0.77861389335455   -0.89658475835677
H          -2.79195831577468   -0.34563425425461   -1.61594464137180
H          -3.20363178579652   -0.15131033086907   -0.14891453155700
O           0.84449451976656   -1.52048550768277   -1.16288210830879
H           0.30931412902414   -2.27369232427389   -0.89991952534409
H           0.25016111575136   -0.75086072840353   -1.13266833568226
O           1.89285477540698    0.62410533169707    2.02686646511403
H           1.55561877509693   -0.21121608993461    2.36618605938953
H           2.37524102172800    0.39979355538671    1.13631535318318
O           2.87389224823036    0.05935249838651   -0.23825502937680
H           2.57949728789905    0.87205076757863   -0.71794805239402
H           2.31579106878081   -0.65525908282460   -0.59543569437078
N           1.56163603970509    2.19543804568357   -1.22203458724636
H           1.55388676363246    2.94829804551961   -0.54489546485769
H           0.65552949517363    1.73585720057094   -1.16723549504432
H           1.64878302283615    2.60517923638249   -2.14335765637236
