    26
        -50.44495086  Gyration_radius:  2.56291834718 Dipole_moment: 5.281
 S           0.08835307425593   -0.29659090488973    1.13694875968588
O           1.36174972950903   -0.25723189800172    0.48229440823280
O          -0.95704967633009   -1.01858304372699    0.48025819888673
O          -0.36420372138769    1.14322413883268    1.41234160085895
O           0.26718858312686   -0.90233141052516    2.55758154664291
H           0.89579137693684   -0.30106739216814    3.01716347704111
H          -1.41847117775070    1.20821556229048    1.13486053845334
O          -0.51640355148137   -1.74329346386879   -2.20932332431673
H          -0.87764953207084   -1.72441202358122   -1.31400540849438
H           0.37730469610934   -2.13255013731612   -2.11263006379390
O          -2.68804693687461    1.09193623504276    0.62923281382027
H          -2.57857406443798    1.55578540731511   -0.25718746135365
H          -2.66436909855916    0.14444872518847    0.43226235206817
O           0.21142873450812    0.79498506453671   -1.83679813680068
H          -0.07866183112101   -0.08260756296958   -2.18422292827558
H           0.76071322102267    0.58605916148700   -1.07200329068236
O           1.59554668854801    1.21820033339902    3.34098548248404
H           1.24643803795053    1.69401041358842    4.09942570364708
H           1.20180542645240    1.61345739014908    2.55257303782139
O          -2.02850853893981    2.17093471100230   -1.62116764640267
H          -1.78650280256672    3.09769038689974   -1.64758876132268
H          -1.19159866540790    1.66245853475788   -1.77551024035233
N           2.04989193253062   -2.40665669871112   -1.45109317454883
H           2.81223752261623   -2.14919039705134   -2.06565581929306
H           2.30049640937397   -3.27590704149555   -0.99699734432097
H           1.98109417400145   -1.69098410014622   -0.73174430978857
