    26
        -50.46041394  Gyration_radius:  2.44106106811 Dipole_moment: 7.925
 S          -0.26603255305804   -0.49567893586587    0.65219755465766
O           0.16957057283351    0.68595193612422   -0.27228008849653
O           0.65350405678514   -1.59451707147980    0.46895853062623
O          -0.25041220202353    0.07716762620310    1.99644224932585
O          -1.63764312001827   -0.83085094008530    0.24677960059459
O          -0.82333578575671   -2.22126296266686   -1.90574970111556
H          -0.25580326331163   -2.86938027143768   -1.47985300937320
H          -1.27597727810660   -1.76386273204528   -1.17309437751623
O           2.85731092321901   -1.43545675138907   -1.14874367203116
H           3.36077630481310   -0.82230408507254   -0.60307199920155
H           2.15394862579494   -1.75492323547589   -0.55983867254218
O           2.65725166982239    0.02066969745418    1.43619817387047
H           2.29544623331766    0.58564109920030    2.12043345581265
H           1.95288577490444   -0.61203666745976    1.23978035937744
O          -1.32157883782336    2.92945130188051   -0.08098839155856
H          -0.73193508147960    2.17608379278768   -0.28852778056756
H          -0.75149500227136    3.69017911903427    0.04343994788504
O           0.88125846143347   -0.24422653328006   -2.46280715032553
H           1.73690519667682   -0.65608864520668   -2.18953071523805
H           0.23602746232477   -0.98703168347579   -2.51430376129341
H           0.47777077045357    0.34337249617714   -1.23343949242062
N          -2.47688248421194    1.19027937187351    1.56696729081546
H          -1.56048217210275    0.87981706802160    2.04140178113157
H          -3.27370493616060    1.28664917637730    2.18651817882063
H          -2.26466463927602    2.04938922098899    1.01272937220281
H          -2.54270868680593    0.37296859883954    0.90038232657253
