    26
        -50.45063068  Gyration_radius:  2.50149475716 Dipole_moment: 1.721
 S          -0.56183962899483    1.13420290004504    0.08205560147121
O          -0.04267183746760    1.62747567799754   -1.15848841094576
O           0.30156575981628    0.21177458389187    0.77125692440446
O          -1.93741609335376    0.47497045240232   -0.14115042446739
O          -0.90956418807605    2.31143972579628    0.99173406401515
H          -1.38138749969863    1.90202565971714    1.78998209963415
H          -1.84903344750151   -0.52357304110360   -0.32600155453300
O          -1.23598546420902   -1.39276135023975    2.21118020549895
H          -1.64498244849206   -1.94827431945181    1.54112935379606
H          -0.49562723597630   -0.95147268429642    1.75297837908266
O          -1.56819010838519   -1.97111884207382   -0.69172371985375
H          -2.23618435642773   -2.30669120271591   -1.29415197776633
H          -0.77512790574536   -1.72174430869844   -1.27034344553581
O           2.67569202928217    1.91643075812487   -1.55978490335210
H           2.75985967029754    2.45296933889019   -2.35007809625994
H           1.72525666573717    1.86850261887408   -1.36990724503557
O          -1.98849141244995    1.04947284012911    2.93522627463811
H          -1.51173616863004    1.19749390895350    3.75564574085363
H          -1.85870624047918    0.09457466431374    2.71223465424928
O           0.28800081582864   -0.97769713917186   -2.14993414255317
H           0.14636587419373   -0.02519998356193   -2.07113666717235
H           1.18751091636960   -1.12134174009355   -1.74246709081793
N           2.56224525389498   -0.94412349030333   -0.79164087813025
H           3.32387039621216   -1.57070798937810   -0.56507007378881
H           2.06728046047784   -0.71667724705168    0.06513402288890
H           2.95929619373684   -0.06994979101458   -1.12667867031095
