    26
        -50.45360738  Gyration_radius:  2.62046149715 Dipole_moment: 5.732
 S           0.15738408644311   -0.17851091615412   -1.38332726406469
O          -0.57676883846990   -1.02738272469052   -0.47690494455579
O           1.57675853206526   -0.12374349176735   -1.15790016575962
O          -0.42568575674737    1.23529858443268   -1.34077175852442
O          -0.12860733450068   -0.62210911446371   -2.81919992456531
H           0.54708219896866   -0.07883419495616   -3.38185933883836
H          -0.44377208845125    1.62185304607224   -0.33601518855615
O           0.56150937443252   -2.01759560591762    1.90858225003471
H           0.17175301036808   -1.96910618234642    1.02591802095780
H          -0.18430380853193   -1.99740463017457    2.53636083422877
O           1.57938994812375    0.41668904654905    1.52500692576732
H           1.85734578979757    0.26719230089410    0.60885322948946
H           1.30591910436627   -0.47724818010577    1.83881260706551
O          -1.62630309305920   -1.42034853047785    3.47002710763561
H          -2.02010671778099   -0.91660438886663    2.73728377425427
H          -1.35037698471383   -0.78124039426442    4.12923291260438
O          -2.37561589614665   -0.03883447454340    1.19854115362434
H          -3.24350444141142   -0.07693107200722    0.79373858195387
H          -1.75851396427036   -0.48114919273545    0.57349252060641
O          -0.46767643596621    1.91851088093372    1.03874685266975
H           0.35219287234654    1.42844264693154    1.35570490470120
H          -1.23155436340158    1.39477054024096    1.33685186126108
N           1.72089136149037    0.83422954181884   -3.79894770455577
H           2.20128022133296    0.72955745830296   -2.90905730576411
H           1.46420468820338    1.80457681160970   -3.92205932226700
H           2.33707853536028    0.55592223578190   -4.55111061949459
