    26
        -50.46041392  Gyration_radius:  2.44104483316 Dipole_moment: 7.923
 S           0.50299015744410    0.36002622511982   -0.59969233179379
O          -0.08859787019384   -0.26977227781611    0.70181642288989
O           0.00415723595238    1.74134899190474   -0.63337447936492
O           1.94797774142191    0.33803783970378   -0.38305007150552
O           0.06521800895509   -0.41836081823640   -1.73506460765700
O          -2.41495617877538    1.00618058829907   -1.54862217960315
H          -1.59845131404911    1.43227771954615   -1.22829186725720
H          -2.15630955193092    0.54921062467236   -2.35349913754873
O          -1.42513283556570   -2.70228377836166   -1.48755433588969
H          -0.94655154042388   -1.93505679502028   -1.84245322149377
H          -0.73512372515284   -3.25263664801873   -1.10258827326696
O           1.43824185175961   -2.56258299624920   -0.69790168100250
H           2.23613693460086   -2.24275519789825   -0.27436835810952
H           1.07802177300981   -1.79329199939640   -1.15991457685356
O           0.63406258119763    0.92751664708263    3.01208481457435
H           0.95386199782411    0.27121082325110    3.63354774414946
H           0.25422041073851    0.43007939710545    2.25930343232498
O          -2.43011630296138   -0.96498035906428    0.25074257685672
H          -2.67682297097991   -0.23257486452943   -0.36043592621018
H          -2.25484208130110   -1.74551851326421   -0.32938849101160
H          -1.09979621045439   -0.57933023510025    0.56732993312547
N           1.77465113841063    2.37814722435798    1.09638648948114
H           2.38548649373321    3.18593086169956    1.14576684882107
H           0.92357255209200    2.51527422108231    0.48524705515454
H           2.17112460919594    1.53434037025681    0.55601566975621
H           1.45697708546625    2.02956292885483    2.02795857141878
