    26
        -50.45730383  Gyration_radius:  2.49045143239 Dipole_moment: 3.096
 S           0.41591876248265    1.83355789212037    0.66353058385030
O           0.89763808646637    0.49725249888755    0.98858291006570
O          -1.00728272514950    1.84549752240663    0.40910573970649
O           1.20258826034198    2.44215759497051   -0.40503990194020
O           0.68458397430907    2.74643656512977    1.92643567841885
H           1.31167431377131    3.36937226637367    1.57428300098869
H           1.39722696154222    1.52166997324019   -1.59056544362309
O           1.05125537085332   -3.08885584399270   -0.65599180481166
H           1.28578070005228   -3.81398022619385   -0.07531357296289
H           0.25962603979641   -2.66836874605285   -0.27129507534987
O          -0.80870222241647   -1.50251440545562    0.48452120372859
H          -1.66506747564592   -1.22864511267619    0.88918326771386
H          -0.17194440714632   -0.83611728351365    0.81116461918822
O          -0.99446233040755    0.12925413121098   -1.62780509563983
H          -0.99556639173741   -0.66229796195979   -1.04287813745832
H          -1.17233905446751    0.87052039726715   -1.01500845112325
O           1.37990259048664    0.70498660709612   -2.21130177948637
H           0.38293845046534    0.39603987583723   -2.13102208032137
H           1.95423517272973   -0.01823262808344   -1.66527398100926
O           2.51511148766057   -0.85523297125279   -0.64319356469100
H           2.08944609745289   -0.41225212048890    0.12027453002845
H           2.08729411537522   -1.74100772856951   -0.71512302510719
N          -2.88798190964453   -0.11485471890599    1.48356988262551
H          -3.06329160681202   -0.05095710175520    2.47853555442203
H          -3.78267803609720   -0.08066670114425    1.01079756972214
H          -2.36590420426958    0.71723821549755    1.20982737306760
