    26
        -50.46433513  Gyration_radius:  2.45353804858 Dipole_moment: 2.422
 S          -0.82979147362748   -0.92569884039151   -0.62264389115833
O          -0.04995522331406   -1.40784359464474    0.50910414093829
O           0.02744217776193   -0.39040877957307   -1.66764292884183
O          -1.83634668333999    0.04393809968779   -0.19205710390244
O          -1.57805047361096   -2.14047342355157   -1.25063285231666
H          -2.29368687837094   -2.32865067945384   -0.61098016231819
H          -1.37384391749867    1.51803173249218   -0.93478498372717
O          -3.47591874533659   -1.85087535964134    0.56517805670735
H          -4.36972977286552   -1.70580032192235    0.24647007913722
H          -3.00602776685379   -0.99649484231558    0.47995729957112
O          -0.92863747319828    2.25033038622239   -1.40422717062256
H           0.43666891000164    2.58965547817181   -0.43495243374418
H          -0.60918942061600    1.85193366721200   -2.21828446146033
O           1.21843109621941    2.43915024013564    0.14971761278407
H           0.85182529531868    1.96288847982916    0.93002399513564
H           1.94817449929228    1.42145815056898   -0.55457531204806
O          -0.02141915300567    0.84887546671901    1.90086836360834
H          -0.93606878766255    1.14057864460574    1.87747698242516
H          -0.03131449969450   -0.03234727200321    1.47384264986780
O           2.30556972473328    0.53549581708839   -1.03167612726458
H           1.45484239574052    0.12376409139822   -1.40103238011650
H           2.58198421523667   -0.12957219586891   -0.21680875826636
N           2.67352503213640   -1.03802318380530    0.90311289161269
H           2.80090334798869   -0.56728849373868    1.79015529971773
H           3.32461993152948   -1.80915826358227    0.84148152995461
H           1.71599362312191   -1.40346498379456    0.87290966461599
