    26
        -50.46160688  Gyration_radius:  2.49119812007 Dipole_moment: 7.166
 S          -0.25729564172653    0.95048037590223   -0.47413496684933
O          -1.45845668820801    0.17935256076057   -0.74889980479807
O           0.43608604916084    1.37765372779539   -1.66420015456835
O           0.71894505352933    0.01304554516730    0.33454944666550
O          -0.50946979268732    2.04382991032181    0.47191439390479
H           0.33730682209801    1.88587303602250    1.61279056870917
H           0.97208843855814   -0.76580644152604   -0.27198427243077
O          -0.06883690796593   -0.69755858589339    3.00026763134224
H           0.32758739735031   -1.26787513187614    2.33450596036091
H          -0.96705986060250   -0.47607433707765    2.63897772847241
O          -1.14158966092698   -2.03281340962234   -2.23568847274151
H          -0.78025575784578   -1.65272121658864   -3.04577376662628
H          -1.44270384743039   -1.26806672127042   -1.70874006198756
O           0.91097815996994   -0.43063218623127   -3.49898302522967
H           0.69918225406290    0.28377762753728   -2.85268143625070
H           1.24621500327470    0.01445709591008   -4.27799354002061
O          -2.22298983968201    0.14765073141177    1.75025770761721
H          -2.01668080209808    0.06479621633881    0.79208514905537
H          -2.41201940658370    1.08038496830180    1.87342163677135
O           1.27864047232826   -1.92189999593052   -1.21153217738623
H           1.60066493173049   -1.50410013269760   -2.02494464665590
H           0.36905282151245   -2.21937371132425   -1.46898005436850
N           0.96759573191913    1.63817189406467    2.48679049249037
H           1.92845456103039    1.55681375773180    2.16985972089665
H           0.60433497701012    0.66721250949729    2.79818664354333
H           0.88022556212892    2.33342189334266    3.22092930027881
