    26
        -50.45508571  Gyration_radius:  2.52406843755 Dipole_moment: 3.614
 S          -0.38786680544760    1.18930277666271   -0.86731187525511
O           0.54546204032656    1.52568004019362    0.18551685185558
O          -1.74913633897953    1.02178066503106   -0.37206806131408
O           0.04028898803957   -0.02304212853647   -1.59074394660910
O          -0.37830989335085    2.35523882552876   -1.89557837754651
H          -1.03626093321397    2.04749278177805   -2.57128669358540
H           1.05619942463998   -0.87615848164520   -1.10138710371537
O           0.42485726552427   -2.51565846029929    1.31148097751240
H           0.92963625583995   -2.33129826648015    2.11043797879528
H          -0.33737218526275   -1.90350555415468    1.34626667873917
O           2.73385340421239    0.31006361423641    0.85160093461908
H           2.06589922626629    0.96497551310386    0.53479841139397
H           2.38316045861540    0.05685082383344    1.72979661550991
O           1.78288942116925   -1.47491526614644   -0.60789611816744
H           2.32579604683278   -0.76327466744076   -0.03045731111621
H           1.25725088005513   -2.01559615600970    0.07658068251805
O          -1.31216524733746   -0.47810967402123    1.66347857528027
H          -1.46808240933393    0.11683289111970    0.87947526942724
H          -2.15336516488775   -0.52750150005005    2.12201662670987
O           1.10316391496246   -0.16128550766045    2.96453192776475
H           0.25469564780058   -0.11720704367583    2.48324899096622
H           1.16033602126523    0.65394920002320    3.46535642135511
N          -2.17283250945181    0.96551290251654   -3.18788885041422
H          -2.92580816472148    0.98459503874165   -3.86423629377795
H          -2.56095964040470    0.83013365864118   -2.25905054677209
H          -1.58132969303276    0.16514398471686   -3.37668176414982
