    26
        -50.45837591  Gyration_radius:  2.38753009536 Dipole_moment: 6.392
 S           0.08207544848150    1.65008030438818    0.37025634830133
O          -0.98557946226435    0.64899366347049    0.33024724790398
O          -0.16438302408974    2.79602546368959   -0.44832191784773
O           1.36593546229286    0.93741033672925   -0.18446465637838
O           0.40997310077696    1.96447241351096    1.77414090133586
H           0.83349916974419    0.79094188435436    2.33357930268914
H           1.26853135016979   -0.04531418677973   -0.06569642715739
O           1.07708997323198   -1.62637820628124    0.19099506749127
H           0.22473013858372   -1.84235065815165    0.59186668743702
H           0.91941376841727   -1.70925634129438   -0.79183001731310
O          -0.02111390642526    1.40740772445965   -2.72297762970098
H          -0.10995276217723    1.93026117780951   -1.90221438045517
H           0.48959484816490    1.95442725064296   -3.32223853778970
O          -2.10178564738957   -0.43006805231559   -1.89001068360501
H          -1.81885161427186   -0.02419252274773   -1.05097146910670
H          -1.92329062023960    0.24640816156641   -2.55147842205889
O          -1.20621584449822   -1.35355404601406    1.93687904668236
H          -2.12043373838586   -1.55623530916673    2.13886045159700
H          -1.22612871343968   -0.57419648217545    1.31926321407514
O           0.38233188780668   -1.38093646579538   -2.30365055134707
H           0.62447806288844   -0.47145751857144   -2.53187008101504
H          -0.59261388518869   -1.32556812399931   -2.21245624795348
N           1.11096307422923   -0.26036291808326    2.69314678635457
H           0.21258631016779   -0.78389285051338    2.72002238740963
H           1.57094960205587   -0.24066506448343    3.59707006662377
H           1.69819703135573   -0.70199962422687    1.98185351383164
