    26
        -50.46387037  Gyration_radius:  2.40645007903 Dipole_moment: 7.328
 S          -1.26256507144051    0.00195588817162   -1.22990181833460
O          -1.25476928571486   -1.16611399582048   -2.06243626428463
O           0.05727725758764    0.65737287791486   -1.19492806963847
O          -1.58697694519477   -0.39294262063373    0.25131918631663
O          -2.30337097170494    0.98804521195318   -1.52638741731355
H          -2.37842253049271    1.67961883455286   -0.29548277910764
H          -0.96835077597425   -1.12526344799614    0.60998920569179
O           2.04331513019496   -0.19713007575393    1.58648144218867
H           2.83120370134078   -0.44031809727950    2.07434210492935
H           2.27751323747806   -0.24092942530836    0.63324772185569
O           2.41201441123319   -0.37636614986197   -1.08420551911053
H           1.50069737354483    0.00119121984854   -1.21000380190137
H           2.99375453369511    0.15706141718627   -1.62747510788582
O           0.26581219033511    1.97845474281139    1.02220521183229
H           0.74421362385854    1.33826502435682    1.56596720039793
H           0.28015407039411    1.57642942265385    0.11800816754352
O           0.79916624169184   -2.70684585169909   -1.28812839286881
H           0.02645791924479   -2.27273118990797   -1.70316378030040
H           1.54272890391625   -2.10334588348953   -1.41496624944358
O           0.06211544573809   -2.08032975984443    1.15953355609434
H           0.36889582048073   -2.50088381999045    0.31597149723597
H           0.77700773795752   -1.48464557889935    1.44520388346794
N          -2.34132330199483    2.10713144500991    0.73750865446344
H          -1.30462493666004    2.11302407211469    0.99702487380226
H          -2.83304576980737    1.45346025727943    1.34073495375260
H          -2.74887800968549    3.03583547251330    0.77954155058867
