    26
        -50.46059444  Gyration_radius:  2.44224559636 Dipole_moment: 5.440
 S           0.51710822159203   -0.88453067788577    0.80887382060052
O           1.32987982550455    0.31495068236884    0.63851089675822
O           0.83194982808800   -1.91583237589756   -0.15133814269186
O          -0.96745083949871   -0.42648447732561    0.57626453153440
O           0.53408534042530   -1.33885443100168    2.20197765963148
H          -0.36561214729022   -0.44763999049579    2.84564035697240
H          -1.31101459937465   -0.92569874649540   -0.24930287578240
O           1.96769194407044   -0.92068549248971   -2.35412329350471
H           1.63295354090607   -1.25121995033652   -1.49554984863265
H           2.57303610335812   -1.58911635123160   -2.67770895175429
O          -1.53818538909701   -1.75443171562581   -1.48336473640908
H          -1.27764771393319   -1.10782058085928   -2.19672134093415
H          -0.75255108606640   -2.29582017757071   -1.32676833461558
O          -0.48154416772291    0.04255285108559   -3.07536182186039
H          -0.43777219540013    0.81950545224181   -2.48990745931589
H           0.42591447578612   -0.31116066680336   -3.06484950073578
O          -0.00443620061276    2.25101078045239    1.76651812628166
H          -0.46261126300912    2.54924581354242    0.97287533791939
H           0.66259550781959    1.60805567264148    1.42219144817663
O           0.30252538833206    1.92030983064076   -1.22087809665301
H           1.03256784540255    2.32531945501440   -1.69367144335849
H           0.71577004731468    1.27017891259518   -0.61451251304677
N          -1.08635841809636    0.33362576432797    3.17745766843114
H          -0.74922748051944    1.21677251364136    2.67152865048675
H          -1.08865917351789    0.44658681454701    4.18620469801272
H          -2.00300740443999    0.07118110089254    2.82601519451413
