    26
        -50.45974524  Gyration_radius:  2.48678656492 Dipole_moment: 3.662
 S           0.61972054780565    0.02607061658926   -0.82271890962793
O           0.58655496452815    0.60185636260178   -2.14751157724931
O          -0.12460718323976   -1.21916321316949   -0.69687788803269
O           0.17240793280163    0.99838645690172    0.18817073424500
O           2.09886154303977   -0.32825937473183   -0.45438415425744
H           2.59285588843525    0.51413647851002   -0.67594621349430
H          -0.92267119025548    0.65826681345929    1.06198765196999
O          -1.75957887385839    0.29758090876112    1.58403988296238
H          -2.30271107714345   -0.19401949511122    0.81108032796369
H          -1.40013262775835   -0.42890556610053    2.21503575256968
O          -1.97727975016831    1.31512926159219   -1.81948196994025
H          -1.83533372483540    2.04836930085444   -1.21619708502890
H          -1.08603721462296    1.04874099523886   -2.11629451981209
O          -0.78859763190137   -1.59515630763680    2.99166778546350
H          -0.00810170415587   -1.89443467167659    2.45472434271105
H          -1.36588911191437   -2.35742831490691    3.06772526771284
O          -2.72299075239368   -0.83384500202217   -0.42222362215330
H          -1.86380970046555   -1.25550575232684   -0.63358216321630
H          -2.75523587137245   -0.07525248217115   -1.04552634229545
O           1.09835900497137   -2.35646432527692    1.33772428274971
H           0.65006426090714   -2.07139414591754    0.51320997712144
H           1.96046559558463   -1.93560965936645    1.30111512560565
N           2.84229927896179    2.03353139126437   -1.24554048517728
H           2.55822124464403    2.73987284998824   -0.57945432975049
H           2.07872051529944    1.89482980827061   -1.90343743248603
H           3.65444563458170    2.36866704646544   -1.74730441911612
