    26
        -50.45475544  Gyration_radius:  2.40897646172 Dipole_moment: 4.996
 S          -1.43748730066852   -0.26907326587121    0.88702796899826
O          -0.63215704668458    0.92572876938377    0.68207848180308
O          -2.10765619097353   -0.31220109493961    2.14530139027831
O          -0.56577264909905   -1.49165641193426    0.66059740924969
O          -2.47460071365079   -0.35351162539211   -0.24445605093970
H          -2.02873442818779   -0.20286782013763   -1.13076724829505
H           0.37322827382628   -1.43885921486507    1.26204507590108
O           1.50483278364999   -1.18209732343327    1.94047958119205
H           1.15574511800330   -0.61894934060342    2.67438267621568
H           1.95039157609802   -0.56091777279489    1.29992420202988
O          -1.40059504169297    0.21274771852183   -2.53535929572514
H          -0.89317602274972    1.03229589027955   -2.28803836858108
H          -2.12902548767248    0.50142429169147   -3.08963307861039
O          -0.11343801921669    2.28495685877012   -1.56902532642929
H          -0.38642148513103    2.01622850947391   -0.67184628283308
H           0.84671694602634    2.22264193729907   -1.57573389635932
O           0.10134052440684    0.48219176729027    3.43719918062207
H           0.17742863981153    1.36560120710756    3.06798303524061
H          -0.79268816498171    0.17600360944513    3.19992234097662
O           1.97145791054476    0.52978632770566    0.01640175354630
H           1.84032070972274   -0.09892010103344   -0.73146414623259
H           1.07395804264600    0.81035029308583    0.26327054109625
N           1.14069518376760   -1.30632030432652   -1.80743250997614
H           0.62163744786074   -1.84385264445195   -1.12042892377286
H           1.74387144590216   -1.94415325956327   -2.31108973018735
H           0.46012793845555   -0.93657700076311   -2.46133876930826
