    26
        -50.44769524  Gyration_radius:  2.49660883586 Dipole_moment: 3.324
 S           0.59088404437415    1.60480071612960    0.46310558897953
O          -0.72265077745380    1.11956065248391    0.13031691315122
O           0.88782119374247    2.90714669130815   -0.04855332278785
O           1.65148305944821    0.58402487039379   -0.03642130176520
O           0.80979239979139    1.55671472469734    1.97218623835016
H           0.72166868138604    0.56731817582880    2.21701692431996
H           1.54411827867213    0.44106435385465   -1.02547070088613
O          -2.04102777717441   -1.18686205020275    2.34387818622044
H          -2.46113984227678   -0.34084633480298    2.51024887219420
H          -2.15038643129510   -1.34253696099944    1.36195267184671
O          -2.04867398330057   -1.24054764809522   -0.26111139413403
H          -1.71363301199748   -0.33056888596674   -0.25358652869340
H          -1.25960240295739   -1.77766580314028   -0.49093992165129
O          -0.39975895024307    2.37240963934578   -2.35551337021225
H          -1.19372113025532    2.01460493276584   -1.94594716658810
H           0.06828794575654    2.82685515494202   -1.63171539801368
O           0.52885711136580   -0.90455491312898    2.46452648864924
H          -0.46605219473017   -1.06201148382855    2.41742713402190
H           0.79625916751499   -1.14800535588261    3.35368394385606
O           1.28322565089321    0.37121450365871   -2.57539429408171
H           0.58417308034806    1.07567966174227   -2.64267028969394
H           2.03671862546539    0.69722206664208   -3.07309343401901
N           0.46663339977581   -2.20520747894395   -0.70004460089146
H           0.89860959372296   -1.74799050843345    0.09537453744517
H           0.75673505189273   -1.70439124969116   -1.53188307984995
H           0.83137922762489   -3.14742748064496   -0.75737268569327
