    26
        -50.46652066  Gyration_radius:  2.41612209501 Dipole_moment: 4.295
 S           0.50147511524329    0.54800125444780   -1.34980232185542
O          -0.86739979161506    0.32140132264624   -0.87768087004879
O           0.68576340845897    0.13624595380453   -2.71595062440751
O           1.42462401393872   -0.36637392711062   -0.43407787805708
O           0.96096410217985    1.88935240465831   -1.03123413257742
H           1.35329115399748    1.83256730497191    0.40084469616517
H           1.13545793814359   -1.30236028048150   -0.57289038685086
O          -0.97106405181979   -1.35609427673427    1.19696427145393
H          -0.48266037408379   -2.12819182427009    0.89713167794108
H          -1.03113059606890   -0.76995630092962    0.41585549590525
O          -1.05578760666389   -1.81823547558555   -2.66924755567027
H          -0.41020193573328   -1.11015285543376   -2.89546184504412
H          -1.76256132604454   -1.35265674077115   -2.21220456428097
O           0.51493334724966   -2.79447740815817   -0.83287990605011
H          -0.15364255337310   -2.55105030627733   -1.53507088562200
H           1.14232689691488   -3.38051587815784   -1.25986904687311
O          -1.77903607597872    2.13293337325947    0.84028850636642
H          -1.42425190082041    1.55575825344596    0.12996283518000
H          -2.72623798607453    2.17221304252468    0.70028269168369
O          -0.39915607655642    0.79229400073938    2.67973439156259
H          -0.58358282036001   -0.10570031984703    2.32636968786756
H          -1.04581884819267    1.36593708812886    2.21403769846743
N           1.68642118620168    1.63769921715609    1.41378688612983
H           0.82613281485190    1.27875316004591    1.99731136773942
H           2.08215815880643    2.47649645496459    1.82648443225152
H           2.37898378740136    0.89611277295839    1.34731536862026
