    26
        -50.45059584  Gyration_radius:  2.42606773617 Dipole_moment: 3.385
 S          -1.59417137697144    0.07228708628062    1.06485479533254
O          -0.27895454636029    0.63566123601076    1.30608741938668
O          -2.02215663336569   -0.87572227982055    2.03810466592182
O          -1.56464794003674   -0.60661428614961   -0.34345401757498
O          -2.60045586648344    1.18077147115481    0.85126877734286
H          -2.08480288205304    1.87935333312185    0.26002744024216
H          -0.87227187783552   -1.32714714165836   -0.36325494396452
O           0.26410507422993   -2.44066508790443   -0.18820719356997
H           0.53604399120144   -2.26195088791436    0.75190633890525
H          -0.07613129099669   -3.33754671242490   -0.21414006612612
O          -1.07518923758074    2.60448856800270   -0.50572045586486
H          -0.30365659410681    2.35108184872786    0.01344833976048
H          -0.98851515008457    2.11740555606182   -1.37904105350385
O          -0.83283100981820    1.02685827056621   -2.56271235457272
H           0.02773018608486    0.55329343286473   -2.46210692197768
H          -1.50503247760517    0.37460864086669   -2.34806386728564
O           0.59569343823437   -1.70412440737930    2.30858463073450
H          -0.25285194782778   -1.91250108136884    2.71738307129210
H           0.52375363653840   -0.75566103541544    2.10741800646919
O           1.34735628058868   -0.39711768045440   -1.97347020891508
H           1.83499912552550    0.11006765276458   -1.28690779097095
H           1.09886016514084   -1.22571087981638   -1.55100851483182
N           2.41716373344216    0.88584834001415    0.18785768758062
H           1.54910647626655    0.89461790275647    0.71578521657603
H           2.77360628291101    1.83226209109054    0.15025690066974
H           3.08325045083423    0.32615605003634    0.70510409890565
