    26
        -50.46041401  Gyration_radius:  2.4410842597 Dipole_moment: 7.925
 S          -0.23024627247757   -0.44162718022466   -0.70186785247935
O           0.69164172577511   -1.45929633242550   -1.20167797289337
O          -1.48338779917771   -0.96998047698763   -0.21502337696884
O           0.53609857855823    0.21711306252066    0.48938352088369
O          -0.41237780033330    0.62589929215648   -1.69444992509579
O           2.97331054158692    1.21875057138096   -0.10295500949417
H           3.62062758075159    0.89319057000487    0.52483010196660
H           2.09782436837317    0.94719291489818    0.24060496419444
O          -2.48664756568990    1.70973256126482   -0.37054769109838
H          -1.76368773934951    1.43956333148913   -0.96647686388270
H          -3.07659368647193    0.95182990914510   -0.33778761158802
O          -2.20060145288923   -0.90302177300549    2.42727940608843
H          -2.20394116801501   -1.02001860120419    1.46295889294980
H          -1.55856545636756   -1.54872563146704    2.74039148852104
O          -0.05097448836147   -2.67783844842814    1.39415269659520
H           0.74177981115190   -2.94955975081937    0.92934231524456
H          -0.57342968906437   -2.20137649350355    0.73454130008749
O          -1.09770480322545    1.45276460261722    1.89409214366556
H          -0.11833001338193    0.77085829298157    1.12327019743775
H          -1.69357493880423    1.76288018513705    1.17327447234222
H          -1.56231230360897    0.68562827068321    2.30902923445360
N           2.01955610977721    0.31385163798863   -2.41537500386184
H           2.43237341635881    0.28314797627659   -3.34095217353760
H           1.69764296994197   -0.63684406123661   -2.02353947574642
H           2.63015158695498    0.75679880975198   -1.69347104169781
H           1.07136848800893    0.77908676090153   -2.37902676605754
