    26
        -50.47054113  Gyration_radius:  2.4717464969 Dipole_moment: 5.236
 S           0.75400587882309    0.94702860227887   -0.80217621027286
O           1.16517910570997    1.37932148215936   -2.10984583159129
O           0.40084821374953   -0.48181682061930   -0.77548094994555
O          -0.56617238006983    1.71951594644406   -0.40237639209137
O           1.66040625999871    1.26909162952773    0.28979821958285
H           0.70234200086138    0.94887749756113    1.47727269652262
H          -1.30503469724025    1.41204733588077   -0.98542980977112
O          -0.49890791973534   -0.20160966945702   -3.40373583883079
H          -0.22226166057437   -1.03116616772469   -3.00389138703140
H           0.17761190790935    0.44622909134101   -3.10342800075686
O          -2.44518276366384    0.71636882755384   -1.92200696718137
H          -1.80015529321747    0.28654284201716   -2.55159520463371
H          -2.92580830889603    1.36336844990197   -2.44195296925233
O          -1.78656436780790   -0.67410084157579    0.64833588772878
H          -2.45744081358507   -0.27584618034129    0.08551260883897
H          -1.00853328776011   -0.79247511096031    0.05784136890408
O           1.22342852288437   -1.64239411666005    2.98972227365385
H           1.79761594524312   -1.64500180801601    2.17886179713917
H           0.67819367735991   -2.42880983457378    2.92637906440697
O           2.44860996507408   -1.39086160178100    0.67023714370490
H           2.91004578314822   -0.54640986006807    0.69746366082481
H           1.69196335492587   -1.22284066169640    0.07299732537201
N           0.01089395909549    0.57624668744061    2.19855749740342
H           0.46227044983175   -0.26107977832879    2.66746250917219
H          -0.83407719580690    0.22889469380026    1.67656224263903
H          -0.23327635625135    1.30087937593344    2.86491527541468
