    26
        -50.47054113  Gyration_radius:  2.47181223462 Dipole_moment: 5.238
 S          -0.02190830589475    1.15617402436102   -0.87828040369387
O          -0.38923940196645   -0.26931010988556   -0.87794868379593
O           0.12634827053913    1.67730727808726   -2.20956890717121
O           1.37482845771039    1.23617067640651   -0.14185596789215
O          -0.89778842916559    1.90907259566591    0.00694049207930
H          -0.49831802968675    1.22652852005395    1.35045711262033
H           1.99744033040227    0.59519815933411   -0.56834219570758
O           1.11184524113022   -0.54953853751288   -3.21581741070837
H           0.76513247799038    0.35118502309509   -3.02585465931978
H           0.39853962332517   -1.13613983806299   -2.94813127818146
O          -2.49316239500091   -0.75509581457565    2.51961975309323
H          -2.79996537022502   -0.52204632803402    1.60377263024929
H          -2.37725230018023   -1.70710714616681    2.52206096984352
O           1.06686412060705   -1.40523229484879    0.97641896412178
H           0.48137433427484   -1.16946170157013    0.22164599535442
H           1.95453268923024   -1.39083537728000    0.60595900926757
O          -2.89387910840691   -0.05472031579610    0.01094693242948
H          -2.03187744080398   -0.28492198287226   -0.39086445609996
H          -2.90273861842714    0.90782792486981   -0.00329660038448
O           2.86413933073055   -0.59051133927276   -1.27822327280342
H           2.25680879600772   -0.69339101024196   -2.06419564546877
H           3.69474563387730   -0.26546653296769   -1.63092739904910
N          -0.24458239098718    0.60342273969117    2.17785026008711
H           0.43650440738653   -0.11999261371156    1.83165362749241
H          -1.12686913823139    0.09478878441439    2.47392766219378
H           0.14847720578726    1.15609520673231    2.93205352142020
