    26
        -50.45059580  Gyration_radius:  2.4259299476 Dipole_moment: 3.391
 S          -1.78340525553553    0.53175276553495    0.46623904849271
O          -0.52447221065733    0.76499179533554    1.14907086860376
O          -2.73538536395689   -0.21757347484862    1.21543171177382
O          -1.46389567787665   -0.21992641448206   -0.86716243715018
O          -2.34472647792228    1.83958520417895   -0.04490687966782
H          -1.50236388538384    2.35117418113632   -0.40938941660822
H          -1.01129766225164   -1.08931762437670   -0.67154802103843
O           0.35449628297137    1.04088677937246   -2.66506428900460
H           0.98242483568326    0.37612661642672   -2.29250289553948
H          -0.49318244802867    0.59020679819071   -2.70642169674438
O          -0.31956436615230   -2.43650273221560   -0.15337594756165
H          -0.84821979152405   -3.22095868616709   -0.31459564432618
H          -0.33772902600849   -2.27233735673494    0.82770364065427
O          -0.65543178478642   -1.65068114146260    2.32756794075294
H          -1.61463061445134   -1.61804102896399    2.42462404519713
H          -0.41498179149602   -0.72814005032936    2.13634113236376
O           1.77728122917737   -0.83947671726113   -1.41308405005608
H           1.20035250322721   -1.55271656975343   -1.12118885607180
H           2.12219975853204   -0.42887183582529   -0.58918729285991
O          -0.14719734145053    2.75463334300856   -0.77058656559748
H           0.31613964615266    2.34978955940977   -0.02867689125608
H           0.09756314124360    2.20792841891153   -1.57605921889245
N           2.36006275353752    0.26547174581184    1.01641365868474
H           2.93917833040593    1.08794790586646    1.12773260480928
H           2.64788768267592   -0.41043184220371    1.71277056109525
H           1.39889755388098    0.52448036144380    1.21985487997313
