    26
        -50.46173759  Gyration_radius:  2.45792561837 Dipole_moment: 6.245
 S           0.13965267537705    0.65542023802327   -1.32686826811053
O           1.01263607011490    1.60576769595964   -0.63956313779170
O          -1.22408492537773    1.11590673527052   -1.41838015809252
O           0.15688945826019   -0.66324749553466   -0.47147521039110
O           0.72840645349431    0.21500991475669   -2.59147915463743
H           1.83871169998513   -0.52268706892683   -2.09096846654366
H           0.03354953087841   -0.45025763281044    0.51851630403668
O          -0.80907243683821    2.34701337377984    1.13260397017787
H          -0.06051212176824    2.32110296113825    0.50637789942610
H          -1.58480770436034    2.25353384329403    0.57220173003308
O          -3.07227633160641   -0.53516899912600   -0.50925131592693
H          -3.88938569042957   -0.07417749915611   -0.70700285579697
H          -2.35518017521510    0.01688276524222   -0.89176406263126
O           2.64591283749327    0.14862220864976    0.75078153989871
H           2.14031584829216    0.87814931765508    0.31645050634715
H           2.06116161739176   -0.16280452842948    1.45203811167295
O          -2.45311256307563   -1.29662339697902    1.99611179551332
H          -2.72395681483670   -1.00046251298120    1.09920967483424
H          -2.44049825921440   -2.25396377423005    1.96065467374083
O          -0.08778097852590   -0.07504801232063    1.98599594492308
H          -0.34284037548478    0.87296106779218    1.90084493506654
H          -0.93125807864896   -0.54234953827261    2.18536305150926
N           2.64119314297066   -1.09644527373012   -1.57015155157418
H           2.70512684051963   -0.67963452896488   -0.58269637724449
H           3.52562056794904   -1.01072330793052   -2.06198459066314
H           2.34558971266121   -2.06677652213721   -1.51556499774296
