    26
        -50.45465792  Gyration_radius:  2.47379767376 Dipole_moment: 1.441
 S           0.87869526193607    0.88494663243634    0.39616718141683
O           1.21324264079430    0.53643883399640    1.74781788310817
O          -0.41238909137741    1.52387045888306    0.24854627661153
O           0.90205276220853   -0.37508784253588   -0.48147886647984
O           1.96145259788596    1.75748988595596   -0.21417521122619
H           1.52991950206609    2.18261394076586   -1.05132890004128
H           0.22052118508013   -1.06700901627315   -0.11669680640415
O          -0.75106963679393   -1.92290685595868    0.61655056322823
H          -1.18109443995042   -1.32387487057420    1.27037483122340
H          -0.06308554937301   -2.39066537121009    1.15589774901931
O          -1.95548384580239   -0.04378584818883   -1.34267648085827
H          -1.84690982285190   -0.92384921203929   -0.96843001605263
H          -1.51431713863146    0.57027251620013   -0.72923020777757
O          -0.40539125207933    0.62415507978607   -3.43403585904299
H          -0.96812570196504    0.79468229742820   -4.19136501885622
H          -0.98914157899326    0.26748448698726   -2.72773886021174
O          -1.38397719800030   -0.00746604795931    2.36858798671481
H          -0.44352440231877    0.21908806522084    2.45070969054175
H          -1.78250043570841    0.74544969748926    1.92251356622365
O           0.55648218441831    2.68294114271343   -2.07692313990917
H          -0.19274547197964    2.77064952116798   -1.47508976665317
H           0.32404679233854    1.93001444822657   -2.67898341195517
N           1.35356701434518   -2.42153921455790    2.17754010649060
H           1.53140222057109   -1.41905730113473    2.18502781858131
H           2.18021226209694   -2.87562090701047    1.80998703424504
H           1.23816116207550   -2.71923452984914    3.13843184807677
