    26
        -50.46564937  Gyration_radius:  2.44849985935 Dipole_moment: 6.106
 S          -0.00155982075863   -1.14156763631455    0.00811648730514
O          -1.44623883758334   -1.11030647602751   -0.07314406007678
O           0.56750727705635   -2.47543596798143   -0.18543658853184
O           0.59089802488549   -0.31836361577705   -1.17347404488668
O           0.49098521313179   -0.52244485521328    1.23819057700756
O          -2.99260544138573    0.36279865719707    1.54272263368956
H          -2.45015610719445   -0.25478813703533    1.00872190999337
H          -3.28395436930283   -0.13165067720808    2.30949931815535
O           2.83994381966399    0.33486466269651    0.58103133952876
H           1.98442474191923    0.03767402619623    0.98735670162791
H           2.64424636489540    1.18085432917153    0.17007648482188
O          -0.68166630359545    1.85718891550672    1.59139460693281
H          -1.61157173006370    1.59768345793892    1.70461310182144
H          -0.18994957675297    1.01586639023840    1.64500953681748
O          -2.81396387680440    0.86162043280623   -1.37838803769773
H          -3.36304127290193    1.10404476926341   -0.62573066625509
H          -2.40695681558201    0.01502443316182   -1.12517791639907
O          -0.40804608226413    1.96887021044867   -1.02318481674809
H          -1.32363097698746    1.76559323182788   -1.31999452620927
H          -0.48222429445155    2.11090493131166   -0.04278749638484
H           0.19439639777731    0.64715880536032   -1.15193848072084
N           2.86767659691658   -1.79428418344234   -0.95503362382920
H           3.61349265690718   -2.46282606380096   -0.78943210018968
H           1.87570911033457   -2.18755787757413   -0.62163745386337
H           2.99572885516482   -0.90150100439633   -0.38091089555895
H           2.79055642695030   -1.55942074835008   -1.94046199035100
