    26
        -50.45409220  Gyration_radius:  2.58015937557 Dipole_moment: 4.067
 S           0.08475247962094   -0.64473937731636   -1.32237842682946
O          -1.00421352196602    0.31211589075811   -1.41219819558326
O          -0.27676120108023   -1.85322180172706   -0.63444047954771
O           1.27625707662994    0.01745992078546   -0.67780269846992
O           0.56222390295940   -1.00966569622617   -2.73307005557189
H           0.86316651833822   -0.14997456583145   -3.16299019312812
H           1.06369832325618    0.45848584750354    0.37865828595332
O           0.74692159858396    0.92309635525414    1.52044001717860
H          -0.27362062715632    0.82512761827477    1.51814570290145
H           1.06318790030406    0.23097657482822    2.15875285187261
O           1.16315627568701    1.27998369359224   -3.73328617831538
H           0.95403105955906    1.89159281249004   -2.98216567679255
H           0.53431738561257    1.48657168325077   -4.42855551418923
O           1.14189364449213   -1.10679177846409    3.14914415176920
H           0.84872586333657   -0.98832634639974    4.05405223245821
H           0.46931332261224   -1.67261034039817    2.70676629465274
O           0.31141115060006    2.60039628283442   -1.60723848778734
H           0.93607093731367    2.54518747898518   -0.87974619111677
H          -0.31413719141386    1.85676971961187   -1.48168475843235
O          -0.77989163543262   -2.47200724448879    1.86659610348029
H          -0.60256189525841   -2.24246472122491    0.92535003959308
H          -0.73798691812881   -3.42944835584793    1.90323125884988
N          -1.77757856343959    0.39162009535414    1.31152672265739
H          -1.91579717664754   -0.54510439928461    1.67316500605417
H          -1.77554326213329    0.33015400184473    0.29371455657766
H          -2.56103544622353    0.96481668197358    1.59601363167377
