    26
        -50.45749360  Gyration_radius:  2.47650272398 Dipole_moment: 4.144
 S           1.31726949988709    1.26536863068174    0.51323558423882
O           0.14970869775248    0.64468336732516    1.11150175628858
O           1.37197400841967    2.68507184412391    0.62154528779778
O           1.36944934126733    0.86101751663417   -0.97372008356901
O           2.57254530991252    0.63552297986716    1.10681382634576
H           2.55808409060397   -0.38621806073041    0.83393622032003
H           0.65122528684632    0.14884462978575   -1.25068772550379
O          -3.08610707761934   -1.37862999486233    0.73983359006913
H          -2.94513700549324   -0.54947964775133    0.25648275035016
H          -3.63714717269684   -1.16123228889383    1.49289547914496
O          -0.40613706019100   -0.80370709846136   -1.55339803824161
H          -0.39892383120695   -1.42577458445969   -0.78782923386148
H          -1.18300643165821   -0.22601598084047   -1.38400171494397
O          -2.05299780171938    0.95651232079016   -0.38081050480022
H          -1.86592938791503    1.80976353627474   -0.80967041780675
H          -1.37629333994348    0.90981929655913    0.32215232153968
O          -0.41921189011511   -1.95503610443239    0.85430106882283
H          -1.39020987992236   -2.02965593139227    0.91241614867283
H          -0.22387959203930   -1.05158272171638    1.17037835347202
O          -0.58059328455413    3.07265297584745   -1.22611903967236
H           0.07169563600605    3.13517662873482   -0.50795677616091
H          -0.06964045789697    2.96534779778035   -2.03096166368779
N           2.42541737993997   -1.78861620572804    0.33537593890824
H           3.14005948641105   -2.39629655314015    0.71362465734889
H           2.49604837670392   -1.78502166889102   -0.67443615611494
H           1.51173712918482   -2.15251465304291    0.59509836104073
