    26
        -50.45047813  Gyration_radius:  2.42101823329 Dipole_moment: 2.585
 S          -0.16928254730936   -1.06294911420498   -0.63404513506339
O          -0.80367719752415   -1.77953267276999    0.43057241582302
O           0.84971333488026   -1.73745781301197   -1.37384922080714
O           0.43175378617372    0.24571424976758   -0.09932657382038
O          -1.25592533611975   -0.60363476705484   -1.64563774635311
H          -1.79168516708582    0.11342359991338   -1.19952458035597
H          -0.02766544356778    0.60756346839403    0.77699213298791
O          -0.13045747333507   -1.29559250324514    3.00329515118329
H           0.81141195766695   -1.39131103446262    2.75280863472937
H          -0.59095210069055   -1.74050300002706    2.27472309728150
O          -2.29417782646648    1.44007986390459   -0.47987705452343
H          -3.07225690137000    1.80576342523010   -0.90612144358422
H          -1.51832426334580    1.96897282008500   -0.82186997004882
O          -0.17584989000145    2.57263304769314   -1.53543063487832
H           0.23736668460905    1.87101778443874   -2.08329767762141
H           0.45129003370966    2.73011166250194   -0.82592638900635
O          -0.69375049197459    1.01393390794500    1.98535923528784
H          -1.62403268753937    1.00915762843832    1.73966143370298
H          -0.51693728366306    0.18958869602825    2.53773722307809
O           0.99201219303156    0.51867613738866   -2.92852276083096
H           0.46263103742336    0.24361113537008   -3.68043894749466
H           1.10241185721057   -0.27611570941576   -2.38200325965654
N           2.16357109950138   -1.59616347531255    1.49681070673652
H           2.55975130289091   -0.69365377123976    1.26286334605881
H           1.66969588912541   -1.91946715440097    0.67171722517766
H           2.93336542372895   -2.23386639195033    1.66333079199734
