    26
        -50.45047795  Gyration_radius:  2.42107395067 Dipole_moment: 2.584
 S          -1.08275300808157   -0.62171767395348    0.00363682300132
O          -0.67817388485298   -1.64627289963104   -0.91067145162410
O          -2.36234991955777   -0.01933576978195   -0.19777476012779
O          -0.03650832083048    0.50284918297551    0.02631188271315
O          -1.05934913129527   -1.19981474043158    1.44600685523379
H          -0.10023277143870   -1.33588542066172    1.69481276630805
H           0.92981009241490    0.20138236590639   -0.26527454220690
O           1.44331981792020   -1.16094337915431    2.03547083521307
H           1.32911178533147   -0.19154681569716    2.24955730055617
H           1.67823612539858   -1.58875978352457    2.86175418613370
O           1.08619418724196   -1.10302989190499   -2.88489844525578
H           0.54530121870661   -0.32265046170640   -3.12473229171701
H           0.46404297017905   -1.64472253966994   -2.37475053798506
O           2.20951046474080   -0.28964657907179   -0.70232222144715
H           1.93826468465095   -0.62104467159466   -1.61483964955446
H           2.35702918102977   -1.05813665184420   -0.14240324126946
O           0.83858254271114    1.33941140758448    2.55196869974161
H          -0.13485461144815    1.39084878217464    2.43842715914692
H           1.19664268701891    1.87544377350247    1.84081590530315
O          -1.86109372262934    1.43066239370287    2.07676421475850
H          -2.35910814700973    0.92063717557099    2.71950802482415
H          -2.09178603289183    1.05673919307633    1.21101312070225
N          -0.85308724716438    0.86088455613672   -2.82749913789883
H          -1.44366799615500    0.36732456511226   -2.16654860000059
H          -1.44071642621005    1.16982548768893   -3.59309643738104
H          -0.51236451787764    1.68749839520171   -2.35123644720666
