    26
        -50.45254211  Gyration_radius:  2.49053118111 Dipole_moment: 3.375
 S          -1.01454479861225    1.27588204171390    0.17062108464144
O           0.19014338121643    0.56795209113323    0.55841184811727
O          -1.48821816993654    2.17518960751868    1.17718568385590
O          -2.08945899692800    0.26438984028811   -0.22781858119232
O          -0.74656159890270    2.03458063376409   -1.12517878833431
H          -0.60584365793521    1.31498173926626   -1.84556205358263
H          -2.12501149476129   -0.54862684996902    0.41898775148302
O           0.61384312282329   -2.01240433352011    0.67671856832592
H           1.27230335957685   -2.18850042412827    1.35118795637831
H           0.50931621270011   -1.03429564764849    0.64126410176542
O          -1.98522239652792   -1.60188941535130    1.44672196921629
H          -1.81890445208246   -1.02705518106623    2.22584897617362
H          -1.13168553694203   -2.01045223918667    1.20911848908582
O          -0.35804794043164    0.21727513375544   -2.82627578348561
H          -0.03481076793998    0.54536323292145   -3.66807597781414
H           0.32744505138741   -0.44340966825131   -2.49975129992933
O          -1.55992947589413    0.39341302979083    3.18190944540621
H          -1.45453652918404    1.12163558578986    2.53988282472156
H          -2.27604616422584    0.65604126816453    3.76468934268645
O           1.51290493716486   -1.34586272958328   -1.93762246449764
H           1.17174009973170   -1.82177477178480   -1.16629144364980
H           2.10430957536737   -0.64531933195884   -1.57860763751204
N           2.73240408148630    0.80255026187511   -0.78184070434871
H           1.90746723049503    0.89735190792610   -0.19133144164941
H           2.80345491443971    1.64597976303116   -1.33706757838013
H           3.54349005391280    0.76700447551463   -0.17712426748672
