    26
        -50.45254186  Gyration_radius:  2.49054378327 Dipole_moment: 3.371
 S          -1.36768254022783   -0.19811563736185    0.88076647486492
O           0.06682917217799   -0.35377986232822    0.73710312476384
O          -1.93901040064024   -1.09698877249177    1.83585458560855
O          -2.03163278378156   -0.34013553943295   -0.48904805467432
O          -1.67182650339598    1.24439445692524    1.27214991390942
H          -1.41453360562980    1.81382758350898    0.45609895584655
H          -1.62514317134332   -1.11811618382251   -1.04589871246975
O          -0.89399125110503   -2.25037279729567   -1.65295753092858
H          -0.80926881465165   -2.81629640582802   -0.85437380436965
H          -0.01436777791298   -1.86243485011521   -1.81962546156535
O          -0.96804585254599    2.58180977029054   -0.74382875915898
H          -0.96940489372128    3.52942156729624   -0.59274582245332
H          -0.03195434450614    2.34378240752995   -1.02676523674971
O           1.45637625723371   -0.85913701925885   -1.42285444733697
H           2.25175101537574   -1.33475384481976   -1.17648137384848
H           0.98237817760420   -0.66002192022053   -0.58341273581818
O          -0.93036960948384   -3.35183766107994    0.78793699895722
H          -1.23873751043041   -2.57437498867962    1.29201839697039
H          -1.56452093112828   -4.05040075801627    0.96450664597546
O           1.49473763519963    1.98209457335018   -1.30016144344948
H           1.83270849452608    1.95904620527405   -0.37568335886377
H           1.52150779157452    1.06564682183593   -1.61205961990890
N           2.00708655404474    1.68680389534344    1.36242092358895
H           2.87361250567243    1.35002873159890    1.76316490372965
H           1.34366173109417    0.91345953763641    1.35994538517630
H           1.63984067600275    2.39645070016280    1.98393005220518
