    26
        -50.45149213  Gyration_radius:  2.6139018706 Dipole_moment: 6.995
 S          -0.73376287453516   -0.79301642211012   -0.21159510119884
O          -0.62605283730346   -0.92264080101459   -1.63385701533853
O          -1.50980817210420    0.33548685421181    0.23711556128705
O           0.67379855801604   -0.70343949954808    0.40567082581262
O          -1.28663495232843   -2.08983910344539    0.37667155048962
H          -1.43868529511980   -1.95061769295839    1.36997371192888
H           1.18821944814607    0.12205793547057   -0.06795072272637
O          -1.50648682863487   -1.85350147341265    2.90569641342637
H          -1.57874670000049   -2.73960040876953    3.26763325094608
H          -0.60345785306429   -1.50708808729380    3.15898467038923
O          -0.89214671230134    1.31231685969852   -3.29260983175289
H          -1.10208184853942    0.47854909794837   -2.84690332358729
H          -0.88303240291963    1.98011318338925   -2.59406038659567
O          -0.61190265309078    2.56451897028650   -0.77829489846639
H          -1.04571091834672    1.77319361655920   -0.37781838794883
H          -0.93527545364304    3.32684584736432   -0.29561670441961
O           1.72919564380130    1.20476009456368   -0.74857495189124
H           1.01063292214317    1.86814691250821   -0.77971647397478
H           1.81517653354743    0.85718100599471   -1.68578536823027
O           1.54000059823378    0.16614966663797   -3.12951839337749
H           1.10900432195287   -0.65350281673245   -2.86014351074561
H           0.79991310402077    0.71480566527618   -3.46528893331684
N           0.97616694113469   -0.98124125355313    3.31079150067573
H           1.71057035668087   -1.57867144679563    3.66948818370466
H           1.06853523810332   -0.07526854887291    3.75259798695891
H           1.13257183641414   -0.85569817072178    2.31311036428916
