    26
        -50.46887306  Gyration_radius:  2.48641022661 Dipole_moment: 3.032
 S          -0.95233069544563    0.74166567252820   -0.09603622071495
O          -0.89515446989151    0.77449421514783    1.36019045853465
O          -1.22471131051895   -0.61806525959364   -0.58101750783876
O           0.27339801457058    1.26101450887721   -0.68712069674063
O          -2.13879519384755    1.64218292702581   -0.50128214703921
H          -2.20198534596104    1.62743949579711   -1.49466712125335
H           1.73011204534763    0.52273381813712   -0.33418125471977
O           0.66860075872184   -2.15424995506585    0.29852182400674
H          -0.08611839121768   -1.59715498472711   -0.02772968406811
H           0.60797149697924   -2.98448909045796   -0.17734413481438
O          -0.19146179571629   -0.18570251232986   -2.97150073084256
H           0.46062270416728    0.45277754859534   -2.66019415868890
H          -0.58671960947278   -0.53361905471975   -2.14573385925041
O          -2.29651509286482    1.39986743261528   -3.08650197057817
H          -3.06070256355682    0.85939211124688   -3.29756599742504
H          -1.50017834902022    0.83292583666204   -3.24517605400122
O           0.08124065983144   -1.49267608980514    2.90006556866751
H          -0.66786380159249   -0.93951878745564    2.64122875938127
H           0.33374932126857   -1.95711489489929    2.08255868547295
O           2.42103236734818   -0.03315422279732    0.09571886252340
H           2.05251553385541   -0.93276208257049    0.07714830416460
H           2.07012430373619    0.44534698514103    1.54816043758212
N           1.47084377123387    0.68979736281926    2.40296214344718
H           1.20850938618066   -0.19946391100798    2.89310985609154
H           0.53676658661977    0.99306205668838    1.99587186472419
H           1.88704966930502    1.38527089426840    3.01051480332421
