    26
        -50.44623448  Gyration_radius:  2.41129313856 Dipole_moment: 2.539
 S           0.41293586723184    1.36291352076134    0.91727087236231
O           0.11821995592926    1.85872143485499   -0.41914319653789
O           1.61076231306354    1.89571427169770    1.47846449235121
O           0.48226366582123   -0.16814658264252    0.86317812636066
O          -0.81760167724257    1.62270639152563    1.78737253574881
H          -1.18435038211848    0.71668246355682    2.15434706784229
H           1.47345562501363   -0.42097443475502    0.58020076728313
O           0.17675738929722   -2.03774143266952   -1.48490836633020
H           0.62021334581203   -1.20015696658596   -1.70613753069605
H          -0.25857130305627   -2.33934576519137   -2.28450726052722
O          -2.36184126118357    0.99186950696347   -0.82839280796091
H          -1.45231151581252    1.34387086053411   -0.75581566031956
H          -2.91005198179181    1.58648729745961   -0.31396087486209
O          -2.00575104233821   -1.52979922513063    0.16016232062322
H          -2.23072497154320   -0.69257108577640   -0.28934697885173
H          -1.15121369937684   -1.79788086329936   -0.22331405829815
O          -1.78441090800549   -0.55966060278710    2.54366135367241
H          -1.80131490418254   -1.04499950037549    1.65687655492796
H          -2.70185710833421   -0.43889064184953    2.80022224207686
O           1.33629616336187    0.37933501757231   -2.23705554066454
H           1.09939430889810    0.73002282088592   -3.09814589460428
H           0.90743005420432    0.97318295073779   -1.58260639571454
N           2.88335467722533   -0.36922615174801    0.14933328360920
H           3.51762468219793   -1.11856748541856    0.38699857516584
H           3.16321482140137    0.49428599818973    0.60033247504548
H           2.85807787552514   -0.23783179652129   -0.85508610170643
