    26
        -50.47165794  Gyration_radius:  2.50844291924 Dipole_moment: 6.777
 S           0.03094592667244    1.08467340642084   -0.20631531498230
O          -0.04363860266064    0.57568409220181   -1.56712571723858
O           1.18136387864312    0.46904939113780    0.48757071494194
O          -1.19098704700039    0.85539924919011    0.54460739963728
O           0.30033801328239    2.60115878872205   -0.28534583396743
H          -0.04888571145277    2.94806895724084    0.59210030567240
H          -1.81982014501904   -0.73397611420777    0.51752108496512
O          -1.90443220740036   -1.68250294823642    0.27947071528244
H          -2.15449144735059   -1.65897364079210   -0.66956233738268
H          -0.44012305663918   -2.04807912113513    0.28184502292662
O           1.14778031310848   -1.62254706007953   -2.39913619259291
H           1.99054952910469   -1.41907515316121   -2.80707465610747
H           0.73763353521088   -0.75278987840937   -2.17701449766494
O          -0.66703048897169    3.01666897802703    2.04270206722429
H           0.05617720995311    2.62935176961331    2.57883138021871
H          -1.24985335626013    2.27295500968182    1.82493994908774
O          -1.94875176279173   -1.17673290126375   -2.34817940302472
H          -1.38887926578752   -1.72406900233282   -2.90420761123952
H          -1.41654803011405   -0.38580013917933   -2.14204189324075
O           1.49164316523452    1.62745759914729    2.85109712405809
H           1.42165042187854    1.13662051161192    2.00421575586876
H           2.33003846656235    2.09176984283083    2.82313431912006
N           0.64777876375826   -2.06578799354043    0.20580657904511
H           0.91281695581091   -2.20367515946986   -0.79080890242411
H           1.06801810215054   -2.75617475236763    0.81799147464534
H           0.95670687007671   -1.07867374163946    0.44497845717981
