    26
        -50.47165798  Gyration_radius:  2.50858412568 Dipole_moment: 6.775
 S          -0.39602243417651   -0.33346917699522    0.97520926396479
O           0.44783253762647    0.76774005693456    1.41306821989309
O           0.40877428159697   -1.28541334099538    0.18139831251125
O          -1.54655450183490    0.11341059474302    0.20964000557167
O          -0.88344788748284   -1.08156620608298    2.23273623861847
H          -1.72841439452612   -1.53275014202245    1.92508137127826
H          -1.23624566230890    1.19837289216611   -1.07428527856215
O           2.77389075344232    1.37749010265828    0.33571293320119
H           1.94995147890591    1.16155639366125    0.83426354059355
H           3.49212116081043    0.98163623743422    0.83120520090033
O          -1.05394777867433   -3.43203278490474   -0.34549440479675
H          -0.46326812234742   -2.65987969601607   -0.21181425968397
H          -0.64623053291712   -4.16482125279192    0.11934399695801
O          -0.73080199894801    1.78837213969794   -1.67426474102565
H           0.51840718963372    0.95332758892847   -1.81405994057986
H          -0.46862846876587    2.53540524117458   -1.09386024593064
O          -2.91422450156925   -2.04629583306337    1.01888993214388
H          -2.88268505799003   -1.21807968054140    0.51564357585740
H          -2.45592908544507   -2.70673739019050    0.45823220687699
O           0.26149460517867    3.24311193424813    0.34124255120502
H           1.20212835756389    3.43466499697407    0.31489781706764
H           0.17559851206985    2.43665400430900    0.88304857938648
N           1.36291955347585    0.27771686137099   -1.67222024208355
H           1.00335905536842   -0.47915213350718   -1.02039361371258
H           2.10387665447767    0.77393403522298   -1.13625920148019
H           1.70604627681476   -0.10319544243351   -2.54696182818826
