    26
        -50.45748032  Gyration_radius:  2.49138754006 Dipole_moment: 4.350
 S          -0.37907471411692   -0.17978637839151    0.96848237951137
O           0.13594846501934    1.16448963089649    0.70571473894769
O           0.62724410309339   -1.19411943893266    0.70537244398539
O          -1.59056872558103   -0.41369343878040    0.16651223398213
O          -0.74576277867841   -0.29090781247875    2.45669246659052
H          -1.43871001599713    0.40221794223498    2.66778061128045
H          -1.25579039391042   -0.66129177461578   -1.21450647045782
O           0.55609536310475   -2.82952467578974   -1.33401048466265
H           0.56798319139242   -2.37623064854685   -0.45654930223233
H           1.47032391889304   -2.90065126976543   -1.61568521295296
O          -0.78059832312109   -0.81082430426393   -2.14121615073780
H          -0.30869970874699   -1.70280403187295   -2.00888916202798
H          -0.00085190523022   -0.06093679936921   -2.11288916154852
O          -2.24851509498904    2.27696580683059    0.37246018259049
H          -1.29619995560777    2.05821298516979    0.41881844959140
H          -2.65112648833193    1.50964603075869   -0.04775393989819
O          -2.41909865382503    1.61987368699361    2.91138912733028
H          -2.51471295129243    1.97664880189545    1.99068467405976
H          -1.98392413616260    2.30472730117058    3.42373689406160
O           1.01287026493610    0.86152866195877   -1.75805664763995
H           0.71797775244283    1.16265025536001   -0.86762991964115
H           1.85705575891770    0.37850345861509   -1.57238761135978
N           3.04740729528487   -0.48230860716316   -0.64898356259712
H           3.59245197144079    0.23993706060018   -0.19397011109045
H           3.67602526353340   -1.25206196356626   -0.84342119781842
H           2.35225048762386   -0.80026047908638    0.02830472270635
