    26
        -50.45059577  Gyration_radius:  2.42591816171 Dipole_moment: 3.395
 S          -0.16396327306863    1.75614676815952   -0.75369297891942
O          -1.13326859891032    0.94637099404241   -0.03938252282425
O          -0.53541664289716    2.08735447518505   -2.08828556236140
O           1.18686975543331    0.96867793157331   -0.77052175062038
O           0.19935281773599    2.97268099884753    0.06784636091550
H           0.27070080533292    2.60343021421636    1.04889090395170
H           1.06637948503522    0.08980852660415   -1.23113748614849
O           1.13178087439912   -1.99247330571111    0.77905527443060
H           0.19066226014494   -1.96621082816281    1.06178684126937
H           1.11079629557530   -1.96034771107001   -0.18289192032473
O           0.67531523799500   -1.25244831033049   -2.01031705961281
H          -0.29202623978341   -1.08329167595215   -2.16945930763229
H           1.09065317671266   -1.32634994565917   -2.87223710868786
O          -1.77921965902055   -0.36890289977275   -2.29626130121737
H          -1.81998967207858   -0.00093441917651   -1.39710308030905
H          -1.67450504729373    0.41061349160361   -2.85468183164031
O           2.28158997275143    0.21247425674688    1.75122412961463
H           1.91556022402912   -0.66934110225444    1.49954414561726
H           2.58773113566535    0.60158153710099    0.92769656070020
O           0.24903593460386    1.76368769524604    2.24262020567010
H           1.07178272197842    1.19106387671738    2.19166444608813
H          -0.48456488968492    1.19137091860085    1.99100507839055
N          -1.52997393256534   -1.63853910111671    1.28252862130285
H          -1.56840051099758   -0.71185015098514    0.86765277327476
H          -1.91434982355412   -1.58243074266281    2.21705880268262
H          -2.13253239754122   -2.24214147179606    0.73739777638406
