    26
        -50.45763496  Gyration_radius:  2.41277626562 Dipole_moment: 3.413
 S          -1.22624075422073    0.14261726029927   -0.74112349942955
O           0.13458371546144    0.69607690000325   -0.77769570484948
O          -2.18240032608718    1.11748396293991   -0.27705970045722
O          -1.22579026739210   -1.06396865823218    0.11412963854108
O          -1.60544655138369   -0.28869992237162   -2.16406355257970
H          -0.79415046229570   -0.73926041969376   -2.54822380146261
H          -0.81839657179239   -0.74129002967260    1.46101090003309
O           0.54724001420551    2.91335135036609    0.58873835983251
H           0.38748514844048    2.16151250769502   -0.02781172323675
H           0.33626104545356    3.70753040902899    0.09623839787970
O          -1.42474412561599    1.91265338970736    2.08130278062528
H          -1.93116559923196    1.68980771492893    1.26035314859627
H          -0.68116325974192    2.46310203011456    1.74790755554529
O          -0.38552043430270   -0.32485844802901    2.32592678919504
H          -0.85548441333219    0.65425945869203    2.36792160353744
H           0.57920022250168   -0.16252558519763    2.03293404192885
O           1.82303881087363    0.19763389533604    1.14314378166961
H           1.30426648304212    0.30294262208970    0.30594203192569
H           2.15258912733479    1.07859311681400    1.34267767127525
O           0.42770080894428   -1.58423329324755   -3.06215389909311
H           0.09599418721473   -2.35350190528531   -3.53034132632313
H           0.82568846883140   -1.91752866076985   -2.20673071646954
N           1.13991904713973   -2.43731444406838   -0.65637571970422
H           1.88459378394773   -1.92160650618465   -0.20400212514763
H           1.23455748957661   -3.41051283432658   -0.39513694396925
H           0.25738439243440   -2.09226390093054   -0.27750797786298
