    26
        -50.46437660  Gyration_radius:  2.46171679726 Dipole_moment: 5.749
 S           0.79206933348385    0.49236383675123    0.46734619479386
O           1.51284180929524   -0.20766447381298    1.53393681558904
O          -0.33836851503568    1.25483833970652    0.98056690438099
O           0.36671724458453   -0.46440133635732   -0.55445469484558
O           1.80880967282948    1.45987067842194   -0.15983504758684
H           1.35989476088685    2.00903930387253   -0.88879594371574
H          -0.73244552807211   -1.83135999436743   -0.16443443602582
O          -0.92400305386102   -2.55648312634675    0.46165553469179
H           0.55607340293682   -2.79686788946479    0.68689983203438
H          -1.21346217773392   -2.08295705460034    1.27209076573256
O          -1.92946873208699    2.36331856531721   -0.80077749289693
H          -1.37849361819092    1.93841882767860   -0.10622605487706
H          -2.67793052123461    2.74935044166004   -0.34426177043155
O          -0.77842655631123    0.58583747558246   -2.74809416080860
H          -1.55140462806226    1.00274412809460   -2.34736286368662
H          -0.35519820020555    0.08308197757223   -2.02679599665566
O          -1.13099810574749   -0.79821420071309    2.46479295627195
H          -0.41815590194063   -0.82866936301736    3.10657453212442
H          -0.96662204899310    0.01949648375019    1.95432803879593
O           0.56258465020147    2.74032500365565   -1.98150873339562
H          -0.23836938124204    3.07713191674687   -1.55374879431974
H           0.22898526443260    1.99062891955159   -2.52900397477371
N           1.63027735826907   -2.63700106546894    0.79750760405847
H           1.67956308738202   -1.59641824050573    1.14442505011987
H           2.06913663844390   -2.68833855465608   -0.11679862924118
H           2.06639375588272   -3.27807061907577    1.45197435466126
