    26
        -50.45639516  Gyration_radius:  2.49591344509 Dipole_moment: 1.474
 S          -0.75078861706920   -0.21975034349922    1.24596111067218
O          -1.57379513197563   -0.78164620034381    0.17909152769277
O          -0.65677255473833    1.22379447816140    1.15808018648513
O           0.58649667143207   -0.83825621312945    1.24197481156431
O          -1.42580821685318   -0.60608155776035    2.58512642796135
H          -0.80421633562917   -0.18186586195881    3.23835524768624
H           1.18288747437574   -1.34550529573539    0.08198465629684
O           1.55503493129770   -1.65883712025556   -0.87146258940204
H           0.70935001114297   -1.94201341702673   -1.38353259880751
H           1.91879131322096   -0.79663782411636   -1.30997458551763
O           0.21765643288536    1.96308504506807   -1.24068060638902
H          -0.02993067639618    1.82201181458103   -0.30306290813080
H          -0.52306132749596    1.58014509322574   -1.74359957357616
O          -0.71397475181797   -2.14430498565467   -1.91136105819080
H          -0.99903390512729   -1.47131065972207   -2.54157140076138
H          -1.16072266635323   -1.89095167525538   -1.07447084223168
O          -1.90886989727387    0.47982763354409   -2.12120532699369
H          -2.75863115787231    0.91731502199967   -2.18862814943739
H          -1.87896388778986    0.08185287370220   -1.22116320253053
O           2.26336689453963    0.53703770159226   -1.91019158709087
H           2.31613839280745    0.61188918207756   -2.86439225082084
H           1.53415580441684    1.16242081283879   -1.61408200508329
N           0.50934069664545    0.72611862364058    3.68973217639628
H           1.29055458066804    0.15365936188225    3.39411055413089
H           0.76476050507220    1.21901019882350    4.53624154161574
H           0.33603543779399    1.39899330325258    2.94872041431215
