    26
        -50.46254883  Gyration_radius:  2.38480570236 Dipole_moment: 4.034
 S           0.79376426820128    1.37845255334854   -0.12715899072893
O          -0.47350946099820    0.80499184716210   -0.60183780140304
O           1.45180941725086    2.16652712342524   -1.13318401878634
O           1.71625310251350    0.13181631753619    0.20437141646634
O           0.61824537695260    2.03101369362765    1.16024980543016
H          -0.08347662205118    1.23977693924198    2.15744399414827
H           1.75272602154590   -0.39876657003030   -0.63117654233894
O           1.65150902675690   -1.23170561035069   -2.02449657452622
H           1.21378508635077   -0.52248285528924   -2.57828559743215
H           2.51628679629620   -1.37323803302132   -2.41413403720284
O           0.59786043003504   -1.56204066649058    2.08394074983049
H           1.39174972730488   -1.14614112497655    1.72182635558518
H           0.08336706325216   -1.83743321544174    1.28606432892726
O          -0.59256419153445   -1.81545339081194   -0.28034759314384
H          -0.60703744916516   -0.84677554738440   -0.44468343837078
H           0.04303679871441   -2.15749419542585   -0.91709744835161
O          -0.63691544040059    0.56328869872298    2.72914329809008
H          -0.14766816662443   -0.33548887164085    2.61149446452784
H          -1.55706126108317    0.46477957827476    2.15740107525892
O           0.56359516260890    0.82694504776972   -3.18412947966221
H           0.96548904470314    1.46141004933605   -2.54464543605069
H          -0.36741605292835    0.81297309363038   -2.94525385876476
N          -2.58722449457340    0.35070953615042    1.15023790851522
H          -3.39849479291138    0.94855835693079    1.22870627834334
H          -2.88749971597743   -0.60203482615524    0.98606857403586
H          -2.02060967430601    0.64781208182032    0.34948259753969
