    26
        -50.46742659  Gyration_radius:  2.40216868802 Dipole_moment: 4.780
 S           0.43243783600154    1.57278864128424   -0.55165300074437
O           1.81899730213793    1.58804543584129   -0.94947308428508
O           0.26581339945830    1.20375509563069    0.85402014182227
O          -0.32032635783089    0.47449500430494   -1.39521458406862
O          -0.32472420318838    2.78009589868270   -0.87299207281090
H          -1.66375237260375    2.25494746466035   -0.87032117336296
H           0.16371947299334   -0.41144798429656   -1.40371156878910
O          -0.57019625778055   -2.28356081033721    1.04470368502297
H          -0.73746137468596   -3.06544222391360    1.57190051904109
H           0.16898946932731   -1.79136474509556    1.50284840125934
O           1.42247076529500   -0.88668287345680    2.01404028498480
H           2.19259367210771   -0.97248704089535    1.43420259847841
H           1.04286882829446   -0.01857729793874    1.76886947678679
O          -2.05583460746235    0.07711258718218    1.09385411867378
H          -1.78851153890012   -0.84782129146266    0.95774941939998
H          -1.19303519753616    0.55032684661759    1.18643150582678
O           0.82794015124527   -1.81159284952868   -1.26302810469885
H           0.31332266530969   -2.15942225274781   -0.51217625894661
H           1.70379539716287   -1.55949183315274   -0.91187019746236
O           3.02621769197545   -0.59939495909721   -0.23379732539456
H           3.90621669173316   -0.58285758221834   -0.61303600942456
H           2.61530872622138    0.27383197063692   -0.46977601225365
N          -2.62218422830251    1.70179427125943   -0.85991019863517
H          -2.50737264796988    0.96333284634368   -0.07993614002484
H          -2.70703878027864    1.23228877869890   -1.75698344505173
H          -3.41025450271130    2.31732889290302   -0.68474095537349
