    26
        -50.46234822  Gyration_radius:  2.39807001224 Dipole_moment: 7.858
 S          -0.16711513213413   -0.02447153609817    0.79915783379774
O           0.24200901831955   -0.19798421650698   -0.60475560086342
O          -1.66764429714309    0.22322460736413    0.87331924273143
O           0.16266868013921   -1.23808907573601    1.55175183720022
O           0.49763684964052    1.14230788477685    1.37786043620932
O          -1.34570701935966    1.12260251935794   -2.35268263805077
H          -0.61328828141706    0.62180879304564   -1.95816052052175
H          -1.37458636824552    1.93313698571604   -1.81612539186300
O           2.87734254300843   -0.37987385577425   -0.63579820994948
H           1.89587282002456   -0.36580403122329   -0.72705814891293
H           3.20227023881046    0.32438846210864   -1.20003889688141
O          -1.05027355270746   -2.53625508576218   -0.76855181333993
H          -0.97304169404955   -2.79927770180007    0.15238997188510
H          -0.43498425752074   -1.78884877440129   -0.86160732511724
O          -1.04026824109599    2.79726452576232   -0.16762970645989
H          -0.40679400738027    2.30513072831704    0.38003639344885
H          -1.87327953048840    2.74917603630279    0.30717432448075
O          -2.90919024047065   -0.60704480769565   -1.11136918329294
H          -2.49594462108766    0.01696793393298   -1.76381040776959
H          -2.45222662861514   -1.46653259563407   -1.21294975858961
H          -2.25362728432165   -0.14505858261117    0.05841419277346
N           2.49600570967895   -0.34579778471135    1.97343524824802
H           3.13224685695929   -0.48165332776358    2.75140884498804
H           1.64316178917552   -1.00172337561407    1.95342534779735
H           1.96699998326216    0.56105368218432    1.97827529753716
H           2.94175666701540   -0.41864741753406    1.02388862051374
