    26
        -50.46452143  Gyration_radius:  2.52807801073 Dipole_moment: 7.107
 S          -0.55872261478098   -0.43285309360438    0.37243468973568
O           0.17695750754310    0.73682835951140   -0.39915843756158
O          -1.96122610445677   -0.10160779365592    0.43400383952219
O          -0.28729418856719   -1.64482837765892   -0.40375544725482
O           0.11107573720104   -0.47786636383139    1.66042980560467
O          -2.22919532201890   -1.23740608690319   -2.15542268022599
H          -1.50155767039627   -1.55220739473600   -1.58273591985644
H          -2.94679048683194   -1.03754019593783   -1.54709489059776
O           1.91948112925816   -2.40203996955437    0.67077244484292
H           1.06865059174749   -2.25090933066658    0.17546663649526
H           1.63909397512233   -2.46342227869609    1.58818233940236
O           1.96291739368806    1.02405676517458    2.70670119830173
H           1.13919616684359    0.56698681194720    2.40623672106108
H           2.11523153580563    0.73063414536377    3.60618109300507
O          -3.00372664037575    2.06466789431883   -0.67647696934692
H          -2.72146921373122    1.25556480108869   -0.19691891029680
H          -2.91754853503720    2.78643710653792   -0.05262659308204
O          -1.19079544859674    1.17604599535606   -2.44079029057544
H          -0.35378131279947    0.93743009091192   -1.28071239708158
H          -1.58358299462771    0.27748782056802   -2.57500515296063
H          -1.90882000968121    1.69709692377487   -2.02508056706741
N           2.64501305763438    0.07915422178417    0.32709704823794
H           1.75944499186659    0.42695370108096   -0.11044543217301
H           3.46002539785369    0.30314813235545   -0.23405781746695
H           2.66976733188557    0.51881581652135    1.27870647091039
H           2.49765571545570   -0.98062769105462    0.45406920842599
