    26
        -50.45669543  Gyration_radius:  2.50762664166 Dipole_moment: 2.579
 S           0.18473182132256    0.93192385209289    0.59324733696343
O           1.38045806872900    1.24105930596251   -0.15129064754506
O           0.27588963231415   -0.27969975703448    1.36996610485573
O          -1.00218009952932    0.84434865997022   -0.36054360638847
O          -0.14946779854628    2.11420555613637    1.48937741512942
H          -0.98449915731694    1.87168608044285    2.03442787408260
H          -0.81742518108767    0.10821046718119   -1.13287518892045
O           3.23171594736095   -0.64887170256018   -1.00044605297287
H           2.80911648342259    0.07277120753927   -0.51069854393235
H           3.18129230211583   -0.39491482095798   -1.92682536847713
O           1.06473039089708   -2.15836790421947   -0.41783172882156
H           0.82893066698465   -1.66020275699335    0.38223574790242
H           1.97005067151370   -1.85801225636843   -0.63814909041838
O          -0.41780800818299   -0.82863963175731   -2.07751792569554
H           0.24505212006007   -0.32237620275899   -2.59110045461296
H           0.10733007288596   -1.48632184671725   -1.53019659669437
O          -2.14591161308319    1.35902870012153    2.84397389268158
H          -1.80099043180357    1.09542774085587    3.70033042458261
H          -2.41396295831401    0.51067072030193    2.37253044339942
O           1.46154937814982    0.95788382437428   -2.81368345036525
H           1.47932858081268    1.18958304097880   -1.86292861912094
H           1.23268049338115    1.75908215572626   -3.28671294523798
N          -2.49525629798597   -0.90333997050837    1.54740379970991
H          -1.48609527452377   -1.01529469321527    1.47650421384126
H          -2.84421351617574   -0.72718989929925    0.61373963549047
H          -2.89504628355031   -1.77264987937490    1.87706333061822
