    26
        -50.46265399  Gyration_radius:  2.49530712456 Dipole_moment: 3.904
 S           0.22835090654982    0.48853435622690    1.00880220769599
O          -0.79031612330227    0.71562005871740    1.99716998503585
O          -0.28619536560792    0.52912825792284   -0.36323219433583
O           0.81609376385377   -0.95784997648901    1.19049062362659
O           1.39767901012517    1.36271657987418    1.12077111070061
H           2.25058651545981    0.65914252632644    0.15895479314353
H           0.04986368199693   -1.63405016330839    1.21357498011464
O          -1.14929229282012   -2.56516780123536    1.10885891487039
H          -1.49557533104437   -2.33096076730838    0.21466897488340
H          -1.81817965964955   -2.18728791211893    1.70296943430569
O          -2.21006905020714   -1.22826969693048   -0.91537395852135
H          -2.93470702543563   -0.96621672222326   -0.33643173706567
H          -1.53658143778655   -0.52633013713458   -0.81145454141338
O           0.69943466485899    2.81336553894138   -1.29075975760881
H           0.15927695651346    2.08771355482190   -0.91901507789930
H           1.22481862728873    3.12668890113106   -0.55041897706903
O          -3.00660902882846   -0.69636304454312    1.86479996780022
H          -3.58553575150507   -0.42244838279971    2.57723458029364
H          -2.22232077510330   -0.10407978760195    1.91479676549437
O           1.47257655812624    0.73927324861696   -2.76834964430943
H           1.27373746361411    1.64908936895474   -2.44510100947201
H           0.62024416801828    0.29234549626255   -2.75892861902962
N           2.65630296073804   -0.05140476511646   -0.56751849299906
H           2.23919475176489    0.20768560544074   -1.52555694603765
H           2.27576105101950   -0.94224362008874   -0.23888999572837
H           3.67146076135479   -0.05863071636013   -0.58206137646337
