    26
        -50.45612479  Gyration_radius:  2.43719175099 Dipole_moment: 2.661
 S          -0.75393892300574    0.68761987757056    0.82014646815209
O          -1.75402274557276   -0.03519664483556    1.55094354794583
O          -1.08884408641053    0.92725194909207   -0.57044686047923
O           0.57580018769261   -0.09632245984847    0.86722422818060
O          -0.41508999097446    1.98826018391970    1.50114345052143
H           0.08431607235347    2.57985557089862    0.75592897322699
H           0.42757294249609   -1.02412443338425    0.43477311203066
O          -1.15683575353663   -2.56695328649203    2.28275929089292
H          -0.86746900886069   -2.59105898984989    3.19572603560946
H          -1.47447068940132   -1.65913508612110    2.11884309790085
O          -2.38958866289578   -1.40568488870282   -0.91330686613336
H          -2.10228280537902   -0.47830588889374   -0.96155697334729
H          -2.93653993515619   -1.46601384629094   -0.12549444475928
O           0.83305220716003   -0.23744528871599   -2.17811106553542
H           0.07931569906788    0.20065620799580   -1.75344983795160
H           0.77564186977008   -1.16559540954297   -1.93582650187757
O          -0.02592469699730   -2.33073117848550   -0.14081315303172
H          -0.27476094282856   -2.76207667783728    0.69840613120181
H          -0.89456112799269   -2.13528029837439   -0.57165951706896
O           0.67967413594381    3.14449770772648   -0.38395093493170
H           1.51851515397147    2.57042970268389   -0.52943567695103
H           0.05680008745054    2.87020649749272   -1.06584422522368
N           2.63047695750218    1.47006305624403   -0.74073409026976
H           2.19612382648315    0.83167792924749   -1.41005672286575
H           2.72547297066953    0.96618051689090    0.13219955644609
H           3.55156725845313    1.71722518761640   -1.07740700170851
