    26
        -50.45506350  Gyration_radius:  2.45507782679 Dipole_moment: 4.695
 S           0.57562625215168    0.98574078020243   -0.75399607418875
O          -0.10549847401675    0.87514317016488    0.53306272278315
O          -0.28815496108167    1.45618094571559   -1.79075020577717
O           1.19175442037455   -0.36214734216947   -1.08700749154177
O           1.76490802412950    1.92503550241416   -0.61981580060932
H           2.49890512249638    1.50853349566250   -0.04098004931486
H           0.42590367961487   -1.12515946163866   -1.15057656211841
O          -0.65629473259297   -1.99711902424449   -1.15010077371366
H          -1.31984958456274   -1.52447202280828   -1.72447079545134
H          -1.03082321376935   -1.95784575251883   -0.23904107046230
O          -2.27023273157323   -0.31295168064946   -2.33132734880556
H          -2.75285519061749    0.05194347018515   -1.56918298193297
H          -1.58799299301485    0.35420197539187   -2.50920951104836
O          -2.76784335739595    1.14553992180276   -0.04867888963006
H          -3.00557845337222    2.00908106667948   -0.39049485129897
H          -1.81576697758196    1.19104125689425    0.14859582506525
O          -1.64199031424733   -1.28740063043602    1.22873749724117
H          -1.10219914665369   -0.48126059815684    1.17712666831367
H          -2.54890776804611   -0.98632653412198    1.12246795171104
O           3.50215687116064    0.92234836077973    0.93073193038664
H           3.65552752215855    1.54703596763832    1.64324546083944
H           2.98197546629789    0.15482477800228    1.31816731524058
N           1.80967587993097   -0.88363895983686    1.81377369225198
H           1.64968909775693   -1.22369061510096    2.75363217551463
H           1.81880096990218   -1.68167732601351    1.19077951470280
H           1.01906460252503   -0.30296074384355    1.54531163186390
