    26
        -50.45979809  Gyration_radius:  2.51779228671 Dipole_moment: 4.669
 S           0.47846670812453   -0.53188340662989    0.32252496067585
O           0.69176582716846   -1.79715700018078   -0.33054017060329
O          -0.86459351819848    0.01615770979339    0.04497866676441
O           1.49236809084443    0.51060852236698   -0.21714230307879
O           0.70481611041902   -0.57368150780546    1.76591392119230
H           0.16608266387254    0.49725063030077    2.50502479540211
H           1.52040367652006    0.43904239059473   -1.24847451376870
O          -0.92866363892357   -0.90830677703019   -2.46366470814609
H          -0.64073660401542   -1.81556676847371   -2.32612674439518
H          -1.06002712883067   -0.54971699416693   -1.56704200673831
O           1.48062503971945    0.21384482288878   -2.71365419543381
H           2.02031388007488   -0.60081044023536   -2.77746055308719
H           0.55349639620942   -0.08780225967791   -2.85125188446977
O          -0.25573732193902    2.50799069691905    0.62485456366749
H           0.63925163901970    2.59651840053368    0.28348693271857
H          -0.58565478669584    1.66021607166199    0.24982274432640
O           2.56878623379793   -2.18340448431394   -2.17762274427393
H           3.40616247022656   -2.32173059558860   -1.73301676470093
H           1.88492163314194   -2.17937176820375   -1.47602519570039
O          -0.39046315598681    1.32657169407158    2.88051927381890
H          -1.39484984063321    0.95850188189396    2.76077931191803
H          -0.29720994655114    1.99800589548242    2.12243323347135
N          -2.61937495626653    0.33223261521337    2.22713520096340
H          -2.92711562629899   -0.50435961515403    2.70496819679995
H          -2.22465996785879    0.06457683956527    1.32083840854337
H          -3.41837389692486    0.93227343616410    2.06874156415303
