    26
        -50.46234816  Gyration_radius:  2.39801108071 Dipole_moment: 7.857
 S           0.48800465902456   -0.49437193196473   -0.42982043208323
O          -0.46321037393353    0.19176927137263    0.46065923413804
O           0.56588343804331   -1.90909502821754   -0.05507947487871
O           0.06957662104487   -0.34837725343319   -1.82330826592991
O           1.86667605427823    0.13872276347990   -0.29990052862871
O           0.73203919702410    2.30650188751538   -1.75499677386583
H           1.68869571324800    2.24517414388016   -1.80771701044535
H           0.41223617897997    1.39683237375310   -1.87182450638087
O          -2.85564293700838   -0.82046639912783   -0.01822080191263
H          -3.42256483293970   -0.09295988234917   -0.28161162485085
H          -2.00488863904588   -0.40956340370378    0.26328042605672
O           0.75730195740173   -0.78226679814483    2.63436260762838
H           1.08698186665928   -1.59903548453694    2.25035619813372
H           0.12262714108580   -0.44327532061073    1.98007356456971
O           0.17647833785202    2.78059650257696    0.91657860383654
H           0.38689410153631    2.96170241640277   -0.01544306092840
H          -0.29654937746428    1.93352856613470    0.87615539113425
O           2.20132997432270    1.35695974276426    1.83862159857044
H           1.78776618211019    0.70329350614503    2.43829577516862
H           2.07462863976074    0.64750535230932    0.61720181459791
H           1.52162536167169    2.06023257432344    1.66762076057606
N          -1.41744678267118   -2.41603463444247   -1.54799073216574
H          -2.21601954304517   -1.98133385560105   -1.01982214999756
H          -0.62002944414491   -2.53725464215695   -0.83586797427835
H          -1.66117761162678   -3.24743488248598   -2.07511935295521
H          -0.98121587216180   -1.64134957388592   -2.10648325510884
