    26
        -50.45256362  Gyration_radius:  2.52890641223 Dipole_moment: 1.465
 S          -0.35688887880643    1.05322940222562    0.40799754482120
O          -1.41612863267049    1.88975077459688   -0.08083580813965
O           0.95609643231764    1.43546194256975   -0.05017676460173
O          -0.62657464285630   -0.40741663815752    0.02100141503079
O          -0.33741045634179    1.01479514996493    1.93078442772558
H          -0.91209895000726    0.23601004158989    2.28932345804688
H          -0.63240873646327   -0.52272427274863   -1.03639911197479
O           0.14632673803073   -2.56417187364957    1.69510994593602
H          -0.21579980797776   -2.58932776273086    0.80566107759240
H           0.92717146979889   -1.95195452730067    1.63322744545250
O          -1.92173457423880    1.73631375791786   -2.67411432399974
H          -1.74874402949423    1.93110132099647   -1.72792632291499
H          -2.87111840131732    1.80631107451735   -2.78867080658101
O          -0.57735295207447   -0.54086179545184   -2.45838533569356
H          -1.15716913194843    0.21604003290043   -2.70874274871047
H           0.33948481592186   -0.22331108074886   -2.63589577346129
O          -1.54912790330396   -0.97798729615135    2.85923803923835
H          -1.37632068787407   -1.01394039774337    3.80294401449147
H          -0.96059090584998   -1.67506209444792    2.43599123047654
O           1.72033026934492    0.78911730491149   -2.52739600628543
H           1.57956102809095    1.06708787295744   -1.60058339065368
H           1.64275582688501    1.58586994747745   -3.05633002569764
N           2.14713142566537   -0.77362612469581    1.41022911979574
H           1.74528172721432    0.03002077801597    0.93415750640897
H           2.91283374550748   -1.11166136709971    0.83937296705818
H           2.54249518245165   -0.43906417967469    2.28041822661672
