    26
        -50.45257017  Gyration_radius:  2.54175761797 Dipole_moment: 4.518
 S          -1.79328938380607    0.98354416873716    0.46578547305718
O          -0.35926126257393    1.17777776077462    0.31827043902579
O          -2.24457670102535    1.05924057827645    1.81246261753546
O          -2.15266523497207   -0.37551102939319   -0.17759632270444
O          -2.53629181807121    1.97049338145171   -0.42641352483658
H          -2.32406801213725    1.68574806243364   -1.38095028030600
H          -1.54851311429942   -1.12911541592960    0.20202216714874
O          -0.47815967654657   -2.01236711607522    0.73749547676365
H          -0.22229913926266   -1.56845928953315    1.57119959639311
H           0.23616625621559   -1.78447113469682    0.10020175451488
O          -1.96359494125300    0.96672361123715   -2.68644856917161
H          -0.99743875486916    0.86704317627770   -2.87289330883660
H          -2.29533765687173    0.07792671685949   -2.52987336921125
O           0.65098100215315    0.58260626921016   -3.05751870057076
H           0.96463874742716    0.00127422760118   -2.33868363539732
H           1.15578543525861    1.39476212178351   -2.98785527873877
O           0.17180630069505   -0.14610942339696    2.60896482329149
H          -0.60038581322396    0.06130604991880    3.14383195703186
H           0.12569199452534    0.48849514296802    1.87156629371175
O           1.29581917002546   -0.63482308881335   -0.71505597337201
H           0.75184888253975    0.10422273531530   -0.37681896908410
H           2.04761925895088   -0.69688347380986   -0.07987719077194
N           2.93313663653466   -0.76608753041200    1.44222184732226
H           2.19233756051175   -0.59403791822131    2.11552636297678
H           3.63902711144388   -0.05269199140102    1.57419757395464
H           3.35102315267329   -1.66060657114191    1.66623873027303
