    26
        -50.46234815  Gyration_radius:  2.39803972846 Dipole_moment: 7.857
 S           0.49936413426298   -0.64269101538107   -0.07057003202480
O           0.91603862006525   -0.63115488818500   -1.53504191408917
O           1.68238862844987   -0.31270892481134    0.72304506726958
O          -0.55895527037194    0.35588904075332    0.15599558980364
O          -0.00826029222055   -1.97220352083304    0.27958751720653
O          -2.31322312015197   -1.07180950422038   -1.27497272726546
H          -1.95115118016044   -1.94485515965487   -1.10194352252277
H          -1.86750774528217   -0.49108525909430   -0.63470800836560
O           2.18147074428162    1.83734513772890   -0.89568642584126
H           2.53920882399164    1.39110186044988   -1.66679579238098
H           2.06711353517636    1.14034128574448   -0.22896257863621
O          -1.03450223462126    0.41902255979357    2.75368347737667
H          -0.88275034535120    1.31952403381308    3.04697948137472
H          -0.96270035986122    0.44106342606556    1.77073941901267
O          -0.43836192016629    2.44808376840216   -1.55499058630830
H          -0.66668466143812    1.86939601754291   -0.80940669600461
H           0.52590492277892    2.54447465262978   -1.47370288762977
O          -0.81460286475788    0.30421267519990   -3.05140613769559
H          -0.78860495933269    1.22694248887202   -2.68570807491905
H           0.19340663958371   -0.26886207926317   -2.23482688669550
H          -1.59661243281564   -0.13408735716722   -2.65864109347747
N           0.66541191197777   -1.59621516761487    2.69292406564985
H           1.43189756904339   -1.05730832012446    2.21913284856042
H           0.97014745967258   -2.24535683831862    3.41003573634543
H          -0.03635584985082   -0.88297631654084    3.01603543040121
H           0.24792025710297   -2.04608258578591    1.80920473085302
