    26
        -50.45506352  Gyration_radius:  2.45484003278 Dipole_moment: 4.694
 S           0.68688488787119    0.81563917821268    0.85795298201455
O           2.10332139101635    0.68831606608291    0.71688161224448
O           0.01271690214401   -0.47866212275269    0.91307133465162
O           0.06857670328266    1.63009934452148   -0.26521961417299
O           0.37181968987074    1.60611228384044    2.11911548583302
H          -0.61019823421346    1.89356396111022    2.13600489338206
H           0.18875862503012    1.12228186253770   -1.21433157957676
O           0.37536231450913    0.33274870002709   -2.34243799999080
H           1.34157046555350    0.09409466399023   -2.28638515538685
H          -0.10767204286235   -0.50776202119265   -2.16318453922614
O          -2.09608197404786    2.18188670970073    2.19530489350269
H          -2.44303624601026    1.60607083234988    1.44845129652704
H          -2.45497549515913    1.82946472539663    3.01287647421582
O           2.78346904185133   -0.42354554400003   -1.66051785903749
H           2.60242279369746   -1.29305914801753   -1.26288490019371
H           2.84881104424900    0.16807048425460   -0.89377250093097
O          -0.63069740748633   -1.92352032820508   -1.32716885156364
H           0.03330609462296   -2.61761825614676   -1.36904230709699
H          -0.53082953104185   -1.53347862558757   -0.44294849204450
O           1.91316811348571   -2.30011529437752    0.15775953308261
H           2.64962679862671   -2.36965983238252    0.76755855838223
H           1.30069844025789   -1.65543072129868    0.55365139940812
N          -2.65420521723163    0.46716237700667    0.28361715879099
H          -1.81073366070224   -0.06366092629414    0.48622369194005
H          -2.51700043870504    0.91371163882538   -0.61467599707399
H          -3.42508306861168   -0.18270999760468    0.19410046231527
