    26
        -50.45384145  Gyration_radius:  2.51821400299 Dipole_moment: 3.509
 S          -0.42358949844192    0.66641627690434    0.23112891377737
O          -1.01285131691025    0.94977755028845   -1.05790889589583
O           0.24343696567791    1.76690799098745    0.85887916942566
O           0.54735577682625   -0.48885447414453    0.13439703017171
O          -1.58602997392149    0.15308205497524    1.11190202441068
H          -1.28863319614362    0.03708846255613    2.08192772150816
H           0.25183031325819   -1.28221164859963   -0.61115124673227
O          -0.14705660613812   -2.11173564503664   -1.55863174170404
H          -1.12450006323992   -1.95189380963161   -1.58425488235351
H           0.23230020238480   -1.66577060060753   -2.36412808449958
O          -2.59848112169005   -1.15659418048307   -1.35223389634455
H          -2.99131213928893   -1.26349629593158   -0.48293449127722
H          -2.18138352387722   -0.27296878850378   -1.34168568670824
O           0.75796176471782   -0.54346298681119   -3.46763636098239
H           1.22323570485432    0.16135327819013   -2.98193397499464
H           0.00426325364142   -0.11557657016702   -3.88039043092283
O          -0.75467676936094   -0.03332270722498    3.50717221446146
H          -0.97554542088588    0.79788370419109    3.93356232226130
H           0.23659939734614   -0.01100746865080    3.34299522317881
O           1.43035336143684    1.63067115354228   -1.93583060580046
H           1.89479982969554    1.89506948187654   -1.14011208686657
H           0.49262202711668    1.59941543997180   -1.69056073819397
N           1.74417657976959    0.24932413268667    2.74012476448056
H           2.55478891073904    0.59631053385807    3.23736028628072
H           1.44574390377657    0.95491853378556    2.06796629209189
H           2.02459165864426   -0.56132342802076    2.20197719120787
