    26
        -50.46742653  Gyration_radius:  2.40211873591 Dipole_moment: 4.778
 S           0.72405437983357   -1.13331405224682    1.07377009173188
O          -0.15398959257478   -1.37444182750448    2.19270117360281
O           1.11314676591033    0.27304778783686    0.97074413027631
O          -0.04822492647950   -1.48284494042010   -0.25520041640841
O           1.88965458714860   -2.01014121888457    0.99195515040219
H           2.19973080562069   -1.89919928933324   -0.40812825305502
H          -0.96809352288399   -1.06856335929884   -0.29344829794306
O          -0.58177255710692    2.31485092931120    1.07834423007509
H           0.16557750207139    1.68781376888050    1.15672212634716
H          -1.28615849024685    1.89842940137151    1.59523268525651
O          -2.30582572287550   -0.28278358907247   -0.41590640277559
H          -1.98897936647605    0.49635064676052   -0.90824686679088
H          -2.43231369348423    0.00124366333347    0.50990956040501
O           1.58178274214350    0.76881010945449   -1.52969181633288
H           1.52262473010259    0.72475018508543   -0.54403776130408
H           0.69454622559666    1.06690353761963   -1.79271445144610
O          -2.12833994468880    0.31509558977341    2.22498977154443
H          -2.73061842399733    0.04560918643187    2.92010253179737
H          -1.35730341051967   -0.30904048681502    2.28030798652239
O          -0.98223073279911    1.86969258343074   -1.47169464399788
H          -0.81211046703631    2.13467248144985   -0.52332846189743
H          -1.26490659891748    2.66473657358153   -1.92472028925021
N           2.29285705764165   -1.73558576071839   -1.49859067175379
H           3.23721687289488   -1.91245801253563   -1.82653039085991
H           2.00021116675302   -0.70702244047280   -1.65051994251504
H           1.61946459437946   -2.34661148697996   -1.95202075163083
