    26
        -50.45023135  Gyration_radius:  2.54476663987 Dipole_moment: 4.134
 S          -1.07574578057702   -0.26079427590210   -0.36417055397463
O          -0.53455555333770   -1.37663241260270   -1.11180437785148
O          -1.93574179333567    0.58828225263944   -1.13407002310379
O           0.07445367962665    0.54842541848024    0.23699010932500
O          -1.79283385491821   -0.82430021770637    0.85676697951031
H          -1.63688558873839   -0.22694831699290    1.69241319805328
H           0.62477524087090    1.05038624950674   -0.52339992004126
O           0.62455178451230   -2.46484882334382    1.06014952387451
H          -0.07477920981351   -3.02817114185763    1.39710489834526
H           0.28431452216073   -2.10851563005685    0.22144570120432
O          -0.99070567485991    2.57518842297089   -2.64575091382352
H          -1.47894647707853    1.94799653440131   -2.07559754845061
H          -1.16604416667643    2.30039389666482   -3.54805926043129
O           1.11287088908238   -0.61731488960351   -3.06273001350899
H           0.43750095500904   -0.97719759144477   -2.45275854578938
H           1.81031841744605   -1.27428360685798   -3.10579208081312
O          -1.30991588469308    0.44256383796387    2.96036952856203
H          -1.69113793705542   -0.07111720863243    3.67628775981863
H          -0.30794988812571    0.26306937031271    2.97111868363754
O           1.27419303281171    1.63630693281494   -1.64575386084826
H           1.38014662510545    0.87531880400374   -2.26056536108664
H           0.54977451449492    2.18212660867110   -2.03710374059868
N           1.21374988754124   -0.21726322990297    2.82695318443633
H           1.61008962144490    0.49773350160618    2.22949725011182
H           1.13571425663023   -1.06066938334380    2.25639741203842
H           1.86278838253854   -0.39973509171756    3.58206197142786
