    26
        -50.45023146  Gyration_radius:  2.54488060718 Dipole_moment: 4.131
 S          -0.77871539168018    0.84080125158327   -0.20804746403294
O          -1.79604094824021    0.03640556834137    0.43604189294413
O          -1.16277438495730    1.33531462989813   -1.49690898557429
O           0.51439199991484    0.03052299284769   -0.31085317050469
O          -0.41480146348297    1.97610976406781    0.74116024236152
H           0.60590844594467    2.16940898311889    0.72159022844196
H           0.40759717595747   -0.76973221143596   -1.00442732051142
O           0.10814862270233   -1.80304150606929   -1.93594609324504
H          -0.75264246365040   -2.15067584144062   -1.60960459629775
H          -0.11600799020202   -1.28592594091852   -2.74724531146488
O          -2.29322140628276   -2.23732982882191   -0.85993387743371
H          -2.46864488955938   -2.90273625854537   -0.19182380735072
H          -2.26025069506043   -1.38045090304271   -0.38836438605503
O          -0.86020239684696   -0.10615138199115   -3.72320112581555
H          -0.94852302578878    0.56001717575536   -3.01244269742925
H          -1.75425351852860   -0.30427745269260   -4.00941995851196
O          -0.39138679686565   -0.18143098688664    2.72174873839071
H          -0.68860209536681    0.58779957317978    3.21151863079572
H          -0.93436675048399   -0.19656853027249    1.91482681024701
O           2.04987443506377    2.37724212980549    0.90651861462930
H           2.28790229121087    1.45906118466628    1.27613726784445
H           2.17187678549041    3.00445687636946    1.62305934025384
N           2.41058176615177   -0.00093029791469    1.92435734772014
H           1.47632515656958   -0.16361926743025    2.30336814504405
H           3.09181453541816   -0.30109556254524    2.61035975595215
H           2.49601296249845   -0.59317412963136    1.10753178971357
