    26
        -50.45857439  Gyration_radius:  2.56438289052 Dipole_moment: 8.444
 S           0.04266008361862   -0.08293841013380   -0.89428200503493
O          -0.34741382046711   -0.91615272422479    0.23944259308243
O           0.62191440358295   -0.83567820928907   -1.97569766055208
O           1.12799025150844    0.92121512846342   -0.34202522603469
O          -1.05510924553038    0.79593283592883   -1.31075133286549
H          -0.89533305066362    2.05333208997421   -0.61473350287334
H           1.73435408044544    0.30556893923742    0.18561405507056
O          -1.82395512070094    2.15771732706008    2.24308358951864
H          -2.27291000662961    1.37028368080073    1.82569185293571
H          -1.28928127300923    1.80344408887099    2.95610465861233
O           2.27533889197123   -0.92400965077025    0.95665865413487
H           2.68092941542237   -1.47177472080010    0.23617726941807
H           1.38255719326428   -1.27881106700251    1.07613914678600
O           0.25325124587613   -3.39812059684178   -1.04921223049399
H           0.25318406006562   -2.58875476157508   -1.58421873523231
H          -0.21804850859983   -3.15426554368357   -0.24844369897938
O           2.83089642650266   -2.28906466498583   -1.23415659450100
H           2.28957824575820   -3.08719369396391   -1.14154439696717
H           2.27123871493097   -1.69067562098947   -1.75597025410546
O          -2.68080386356780    0.07345000880298    0.92296835463534
H          -1.83193348428380   -0.39129722835037    0.74442965030620
H          -3.00792824675259    0.31208918684735    0.05180674637293
N          -0.64594799486751    2.91571839058682    0.02261173618303
H          -1.09473389564165    2.72379934332906    0.97284456531873
H          -0.97138908452074    3.78902786801279   -0.37934508322678
H           0.37089457219673    2.88715799474020    0.09680783848718
