    26
        -50.45532661  Gyration_radius:  2.46882388307 Dipole_moment: 1.044
 S          -1.14210733039777   -0.50529731970082   -1.10971233392951
O          -0.35554792821603   -1.48399011841273   -0.39544765592983
O          -0.83621506477101   -0.39635863442139   -2.50292534788743
O          -0.95427868958696    0.85785539338572   -0.41552513407895
O          -2.62921824653583   -0.77674807626503   -0.92666313333852
H          -2.84142598735316   -0.69837623158474    0.07255952514298
H           0.06257200455661    1.10825407130953   -0.42216389794310
O           1.49426546097691    1.38287166427139   -0.45419478236874
H           1.93333390786400    0.52579234895565   -0.16032116197743
H           1.62860625641946    1.40955207681339   -1.42610634348583
O          -3.04190739901905   -0.64737845484890    1.56811188275712
H          -2.11394425999398   -0.72592673218195    1.94721797456599
H          -3.51992662545639   -1.42626790763762    1.86103979412487
O           1.36565122055085    1.00252068181150   -3.08394658232617
H           1.12940833839681    1.62772985481292   -3.77132740750170
H           0.59378734018650    0.40951256713855   -2.98116650913334
O           0.25823137887080    1.69558420113096    2.10627615348230
H          -0.56502617582279    2.01114686295470    1.72396982969304
H           0.93142989418559    1.82185242833332    1.42715054861082
O          -0.55275687617535   -0.91670495817351    2.22180914609116
H          -0.34500147365671   -1.21135303858715    1.31615113879830
H          -0.17464843738050   -0.02019098601980    2.31664729457915
N           2.40277723074300   -0.99417806544993    0.23166503146312
H           2.56099588229644   -1.19930957877237    1.21009514822163
H           3.16676943446228   -1.38791273537860   -0.30167620412474
H           1.54417613619661   -1.46267928304288   -0.05151696359406
