    26
        -50.45059579  Gyration_radius:  2.42584398541 Dipole_moment: 3.390
 S           0.96972049372148    1.25355108949538    1.08031572844155
O          -0.32483536310451    1.37276587091532    0.43575153730076
O           1.94166092511570    2.19709631092592    0.63974146435970
O           1.49565724410688   -0.19520289745898    0.81676693553279
O           0.80066391420649    1.25114697837652    2.58299914394619
H          -0.05229638171899    0.65809209458039    2.74075744164495
H           1.58320190748062   -0.35512305745107   -0.16601483072426
O          -1.24524497354078   -0.16575335544022    2.57422192571935
H          -0.91550398454005   -1.07821676790762    2.31695221696552
H          -1.57279901945011    0.23376754045214    1.76052699543980
O          -0.16839982656700   -2.35187306854822    1.65828492565322
H          -0.37946186743739   -2.39543978664200    0.69470996434643
H           0.75962526469949   -2.10633401245661    1.70089781354573
O           0.83761915345518    2.07800640935262   -1.88645759144430
H           0.17624966091341    1.95986780295356   -1.18362215094791
H           1.54286228810771    2.57200156166285   -1.45153925742038
O          -0.54085895959869   -2.14856020637423   -0.97768214297443
H           0.23715604777610   -1.76419114442710   -1.39450841847911
H          -1.25920028699750   -1.49035977524122   -1.10854727311008
O           1.67011848809949   -0.40729869880111   -1.76312360094339
H           2.56977025502418   -0.45973193075848   -2.09279938311516
H           1.33428339528153    0.50300182652867   -1.98313924373681
N          -2.25973714764253   -0.04262287177369   -1.24820827460278
H          -3.20705286057743   -0.04926649838309   -0.89218735382363
H          -2.28487447478058    0.34469860002333   -2.18304869069052
H          -1.70832387200223    0.58597797639134   -0.67104788087447
