    26
        -50.45247178  Gyration_radius:  2.52957672504 Dipole_moment: 2.510
 S           0.16697898070598   -1.00863460479299   -0.20756079670872
O           0.50647021707474    0.08695951713169    0.66896965123224
O           0.18612168450166   -0.67681832660158   -1.59988520718244
O          -1.19907340083451   -1.57629469002776    0.20934680857054
O           1.10287334017152   -2.18917630126021    0.03653272163223
H           0.86360896959218   -2.56653864878477    0.95572888870443
H          -1.89578310152410   -0.80089624342963    0.23396462139902
O           0.27141390971504   -2.96591707970415    2.30090656914563
H          -0.63458024846470   -3.21212360050629    2.09507885703625
H           0.21152705414319   -2.11178324822963    2.79763285171571
O          -2.79411485270737    0.34317375283765    0.14592407391875
H          -3.64210637085268    0.09849049432683   -0.23204328709891
H          -2.33065167692308    0.92341728960073   -0.54531044186602
O          -1.45183381911269    1.53173967864299   -1.68085960027687
H          -0.81414727641532    2.15239101622230   -1.24616969362017
H          -0.90670519514243    0.77275779080443   -1.93748405424010
O           0.06202531517355   -0.50367990410748    3.21258076009261
H           0.70622158757781   -0.05074216085157    3.75983154074323
H           0.16680991972375   -0.14551887566439    2.30698542333744
O           0.58281814334843    2.66214531282846   -0.42015071174977
H           0.61427195526295    1.90148183235008    0.17620759658725
H           1.25028290388808    2.46015311569397   -1.10717818092054
N           2.16368750738360    1.42485174155346   -2.31540191399158
H           1.58995096709393    0.59486921617037   -2.18615647732458
H           3.12424400572136    1.16387095036152   -2.13139445381048
H           2.09968946088719    1.69182197543490   -3.29009555532232
