    26
        -50.46265399  Gyration_radius:  2.49521148539 Dipole_moment: 3.894
 S           0.90230587545202   -0.13344136820529    0.69327148827249
O          -0.32178335235238   -0.62145923128431    0.05101675249892
O           0.79037607079918   -0.04846353464034    2.12382387866759
O           1.13728848249654    1.30419664494104    0.10346528775859
O           2.05027550738149   -0.90548471562952    0.21310056192158
H           1.94811500558337   -0.53455423331807   -1.20032183165293
H           0.42020438715729    1.93884822721508    0.46182658715696
O          -1.28411553864594    1.20868858844007    3.14279890107512
H          -1.22154143641647    1.17441560111401    4.09814788271797
H          -0.52794036086880    0.67637436424169    2.80614632242954
O          -0.41925839646098   -1.56980104657113   -2.78334632945670
H          -1.16146501883579   -1.15865785795808   -2.32901126218440
H          -0.16950391238552   -2.32824070962321   -2.20511782998862
O          -0.75940857391412    2.76539414522523    0.95114150080950
H          -0.81903359608620    2.58347543234396    1.90348324330162
H          -1.51836706443553    2.25210283886066    0.58418371772777
O          -2.50955126276704    0.83250087176753    0.48997433813385
H          -2.64966672636025    0.75688509377689    1.44041767003140
H          -1.77863182775018    0.21303726618181    0.29199769158316
O           0.36100274235616   -3.06668332474026   -0.72584364338856
H           1.28346795314887   -3.11547650935542   -0.46310080586036
H           0.01908082364450   -2.26884653715721   -0.27531118452234
N           1.65029102983708   -0.08893025459690   -2.15452214219496
H           2.40843906890790   -0.06846417008968   -2.82951093841484
H           1.36481091913806    0.85324963481434   -1.87672182326558
H           0.80460921136917   -0.65066526575970   -2.51198801316085
