    26
        -50.45213652  Gyration_radius:  2.44487839399 Dipole_moment: 2.911
 S          -0.35450182132622   -1.21914426466534    0.04567083431722
O           1.03772241168492   -1.25663293412639    0.42278596366550
O          -0.75720379724297   -2.22370532269938   -0.88366666607637
O          -0.70273454931614    0.18305907548490   -0.48438155239187
O          -1.16686637687090   -1.28306404080554    1.34796623904446
H          -2.10899389494699   -0.87464434160405    1.22491163894953
H           0.04435067893632    0.55919241693947   -1.13221524143882
O          -2.07880635242954    2.17710200043913    0.99287584821199
H          -1.29163134194464    1.94245351160847    1.53097178613066
H          -1.77972525796519    2.12825758711001    0.08051695756235
O          -3.36728344985244   -0.08355224838962    1.18663347882531
H          -2.98415880474384    0.83765496720348    1.08670021000829
H          -3.78807692235370   -0.10938339065206    2.04943410624085
O           1.17786028681329    0.96376843015467   -1.90741693092429
H           1.81163012198064    1.18029162041910   -1.20251773099730
H           1.42949829232729    0.06044313882390   -2.25991221865740
O           0.12563425690432    1.14300355753457    2.17666648267478
H           0.93928908213322    1.31522527302842    1.67911663910282
H          -0.06841403112407    0.20559682650142    2.06702742791434
O           2.43717684017378    0.94076534088490    0.53568720064756
H           3.30116268074289    0.81877515422911    0.93220890439115
H           2.00472656562366    0.05505095833251    0.52106310707485
N           1.54663589167684   -1.58661417509529   -2.50344858435872
H           2.31219444752301   -1.99362607478245   -1.97994960697846
H           1.59199639384119   -1.94614810754825   -3.44940588741072
H           0.68851863970418   -1.93412496832297   -2.07732243551748
