    26
        -50.44780752  Gyration_radius:  2.51465427114 Dipole_moment: 1.812
 S          -0.72746509525724   -0.16614393745976   -0.45334694143269
O          -0.81064624992566   -0.34032933287186   -1.86800883820021
O          -0.69312939079371    1.21381213668041   -0.01674562906586
O           0.50735682124654   -0.88088812058596    0.11817971173653
O          -1.89816029695348   -0.84813488345077    0.25791166359981
H          -1.66135745235536   -1.80044512749239    0.57084520978084
H           1.29480953079916   -0.18397690203661    0.11053351955285
O          -0.84258985584850    2.56062694851852   -2.42420480339351
H          -1.25076188649799    1.82672011178938   -2.89115661792821
H          -0.84654717574525    2.28815733948995   -1.49532731080525
O          -0.66642070847335    0.58884357288922    2.57461343194268
H          -1.55977470309642    0.70579367898361    2.90272185121672
H          -0.67439977274969    0.90479421632006    1.65212660878181
O           0.43246567306521   -1.89081382689059    2.79312966219109
H           0.06102960941225   -0.98490364691435    2.82374375657700
H           1.21173519848569   -1.82437934623228    2.23553072098917
O           2.19985061735890    0.93621019042769   -0.01276496625292
H           2.13465974300474    1.05404450877662   -1.02544318465225
H           1.70165498744382    1.66633118413531    0.36739040058698
O          -1.29994681893707   -3.08516205293417    1.24121535926090
H          -2.02528317674177   -3.38920534973205    1.79214467342597
H          -0.59569173336178   -2.73970570713070    1.86140468632102
N           1.64579823474458    1.09825955556427   -2.54046483929755
H           0.96895262300890    0.33972452751579   -2.58051335014692
H           2.28827480318651    0.99910480364883   -3.31611503316878
H           1.10558646495088    1.95166547894524   -2.67739973155678
