    26
        -50.44989632  Gyration_radius:  2.48387550889 Dipole_moment: 2.557
 S           0.13727140663192   -0.89613421674472    0.25866976221828
O           0.54685768934701   -1.52661245846948    1.47418910754017
O           1.06562820150699   -0.92032265810010   -0.82653921383828
O          -0.24519981211193    0.58185482482761    0.54490834985077
O          -1.19957428724929   -1.51179405147896   -0.19656334093913
H          -1.31575728299757   -1.16559368088965   -1.17314306727670
H          -1.06356243640406    0.58140081755662    1.15997888752742
O          -1.80246148516633   -2.11311637849517    2.58062145050969
H          -2.15934179205833   -2.70635560981818    1.91507609640090
H          -0.85545954876389   -2.01475622767463    2.36193658736042
O          -1.23926748868158   -0.54891841386843   -2.50344117926726
H          -0.98174500642673    0.41634574203845   -2.37693736215152
H          -0.47689011010955   -0.95966095929922   -2.92088397845352
O          -0.35042485542044    1.83696637934606   -1.96810569392801
H           0.61781116265844    1.77339706746967   -2.15215717678230
H          -0.41106030272146    1.82042376551440   -1.00682061382224
O          -2.33873000366233    0.38187366739584    1.94915559562186
H          -2.23049991825167   -0.52976680559269    2.32990087112127
H          -3.09718532288585    0.34766963160870    1.36075488714554
O           2.25439584694312    1.27506055597630   -1.99418501441413
H           2.02371873462365    0.35297353949676   -1.81454253651375
H           2.61794995777115    1.58033674427861   -1.14716108282999
N           2.69272923542205    1.11002834476308    0.79504587966734
H           2.33266688265715    0.17314337360279    0.65021800899457
H           1.97798785859107    1.62298466991375    1.29701629274358
H           3.50014269665442    1.03857234665153    1.40300847357585
