    26
        -50.46265387  Gyration_radius:  2.49550606929 Dipole_moment: 3.910
 S           0.32962000520413    0.86537525391752   -0.66852023727278
O          -0.53186216680446    0.28111735179430    0.36374521287019
O          -0.38814878225485    1.22754534101022   -1.86004157310340
O           1.38132884880210   -0.25050457675144   -1.01399073404881
O           1.13357084191333    1.94154672945808   -0.08572506780794
H           1.86477085806766    1.12439559782505    0.88659196307744
H           0.91507218615326   -1.01235134120571   -1.51072613834929
O           0.10457375327344   -2.14288887000419   -2.12879706664019
H          -0.45437122613430   -1.71935347784774   -2.80037982995218
H          -0.53614509224793   -2.33714904706857   -1.40332485439284
O          -1.97105419093454   -0.55867026396256   -2.96862009736225
H          -2.38781510106029   -0.16315257610554   -3.73521888504801
H          -1.43957030047388    0.15814308458858   -2.55382277344725
O          -1.85617605066927   -1.91212880165814   -0.36506325874056
H          -1.44610308115600   -1.09961721045874   -0.00623360967532
H          -2.43117196811472   -1.60833024612406   -1.07653391893072
O          -0.64156296296930    2.20487387667664    2.19081809764995
H          -0.79030351188091    1.57542149702274    1.45722881779786
H          -0.06202873554922    2.87493771531538    1.82006682167331
O           0.31739281263711   -0.06102647117043    3.20564083243850
H          -0.06700273655094    0.84068252295740    3.10045818761398
H          -0.30495112479854   -0.63870696306778    2.75226101926135
N           2.25942767029217    0.29560171882928    1.48202216988537
H           1.53057260207671    0.08402480841036    2.24560244422559
H           3.17497787302480    0.49630005279068    1.87231214192964
H           2.29695957015784   -0.46608569516830    0.80025034635548
