    26
        -50.45884791  Gyration_radius:  2.46309091331 Dipole_moment: 2.715
 S          -0.65480929555657    1.34400618349863    0.86871176135699
O           0.22409025586340    2.38519954054296    0.39875754735650
O           0.07654576908761    0.07750889953763    1.05875142095997
O          -1.78665044208635    1.10488584978419   -0.04287983251739
O          -1.23252908629054    1.75162848141474    2.24182070183369
H          -1.84785380949422    0.98651704694101    2.44372537198932
H          -1.37287417534458    0.54267439970961   -1.32398560283815
O           2.52936893669360    0.17960305390691    0.16810005219863
H           3.04994717782944    0.76464910220808    0.72039773706154
H           1.63050869619520    0.14726087077728    0.58499631525487
O          -0.85587280208057    0.05585526215700   -2.09405347600908
H           0.02843382720465    0.60584645137454   -2.14750270903149
H          -0.61669629885212   -0.86672475848102   -1.62578000716149
O           2.38781380835708   -2.21336526575860   -1.14127984209144
H           2.75951000288936   -2.06798916989716   -2.01277918013766
H           2.62601542024619   -1.44049791920582   -0.60064558539136
O          -0.24060498888741   -1.89592101922059   -0.66437403445807
H           0.67320360562283   -2.19921487105183   -0.85484413145083
H          -0.15955885069556   -1.29690317425053    0.11260143432567
O           1.23076138277004    1.45357567582340   -1.84474811999321
H           0.86231585975722    2.04271300051608   -1.14828706657711
H           1.89961732880816    0.93863652674187   -1.35512579997541
N          -2.70047373728035   -0.39453691045583    2.19287598223738
H          -2.09423068873670   -1.20074967953425    2.26972819721700
H          -2.81373631234596   -0.17867561043820    1.20702568657515
H          -3.60224156372758   -0.62598194646354    2.58879316919304
