    26
        -50.45597376  Gyration_radius:  2.47018658395 Dipole_moment: 2.830
 S          -0.06571493338839    0.48340897319635    1.66503762727216
O           0.85220313989078   -0.28181108855516    2.46087438427868
O          -0.92403418155075   -0.32444643049775    0.83013793902430
O           0.70037788210156    1.48051613555834    0.78083035480634
O          -0.90411173137332    1.38451300989105    2.55661681088786
H          -1.58717575872177    1.85018485791364    1.94357719194205
H           1.32924750823395    0.98235391196655    0.12340356297828
O          -0.14015086052593   -2.55219021136426   -0.47546277898594
H           0.71271791302504   -2.66326145346652   -0.03265468367844
H          -0.60529620015616   -1.88069386897793    0.05393637370989
O           0.35692791776983   -0.90994124233501   -2.48840890414498
H           0.68315200610692   -1.39897436723372   -3.24512076612305
H           0.07498631004107   -1.58623951493706   -1.82070256484022
O           2.20500786201804   -1.96210687827926    0.96051907399452
H           1.70455847387346   -1.40791221773401    1.60323335447346
H           2.96277950251383   -2.30587492676316    1.43717582263455
O           2.12317082726761    0.12965631352198   -0.78720199671220
H           2.31629008779445   -0.66650875316299   -0.25606428699488
H           1.50427431487375   -0.16413973682940   -1.49842603186828
O          -2.58628141596406    2.35246463932712    0.93912311801364
H          -3.35210348390388    1.77907067454229    1.02008280790091
H          -2.18078357565474    2.14774072735654    0.03811045149036
N          -1.46205202712862    1.52915010522099   -1.29316930962251
H          -1.89311236711801    1.34727863368105   -2.19071642566661
H          -1.24106691438259    0.63428351752544   -0.86360356532996
H          -0.58381030536733    2.00347921041888   -1.46112756947351
