    26
        -50.44780746  Gyration_radius:  2.51460414127 Dipole_moment: 1.811
 S           0.46544461630095   -0.40243090718266   -0.62077897676162
O          -0.68567656828698   -1.19402884966217   -0.24073654559642
O           1.72234255461935   -1.05359364152998   -0.43461356822074
O           0.41193623107546    0.92423948045339    0.15345517118286
O           0.27378347787316    0.02460079910952   -2.07759109015679
H           0.56584417149573    0.99916510063249   -2.23844099782850
H           0.01872835225471    0.70762273239100    1.10442401843446
O           0.50670190184823   -3.53928563185349    0.60199468580492
H           1.31009377043355   -3.39760629504889    0.09432441582213
H          -0.09550268317694   -2.84402498861124    0.30028293257598
O          -2.44611699827119    0.65772724351342   -1.00067331858533
H          -1.87326880929108   -0.07123017867824   -0.69844568984836
H          -2.78384011800797    0.39176830719503   -1.85777472679464
O          -1.19565370776934    3.06910940460222   -0.84342307655053
H          -0.77548936404399    3.03111416423880    0.01951373640216
H          -1.74281077584667    2.25836989043406   -0.89801029985565
O          -0.52327064603813    0.15862841925807    2.32660087631493
H          -1.25567741206460   -0.38477442221930    2.01990025019375
H           0.23676284620043   -0.49193925535844    2.53324162672294
O           0.75671427165825    2.46172487990953   -2.47313955044997
H           0.05235104813136    2.80809932793802   -1.85367130474019
H           0.47918385367919    2.69562753734446   -3.36215726953603
N           1.44931511272744   -1.52017886844066    2.44007344843510
H           2.14227366956220   -1.60283550180102    3.17301978396424
H           1.91695251954833   -1.23912430482218    1.58134354759551
H           1.06887867541530   -2.44674444171245    2.25128193149659
