    26
        -50.46234815  Gyration_radius:  2.39802487309 Dipole_moment: 7.857
 S          -0.34525821059429   -0.60297009611127   -0.42966999508948
O          -0.94578823753479    0.03871031010215   -1.59836754117384
O          -1.31177655973704   -1.48027592861903    0.23673182130618
O           0.83360637624556   -1.43192343076876   -0.92111938193361
O           0.12335264460156    0.41607214110433    0.52453566534100
O           2.67750033045248    1.19431563840061    0.08865114646248
H           2.56297770356512    1.26025742730034   -0.87480215255665
H           1.76516887587759    1.14211418388454    0.41703399068006
O           1.52421044163544    0.89310968478995   -2.41148359664005
H           1.88284128312563    0.07302002743902   -2.75869465351384
H           0.60073985599577    0.69197321821639   -2.18751104282259
O           0.71058874885290   -1.45507665653713    2.34594920489145
H           0.45119628167253   -0.64520256941609    1.87407661428966
H           0.05114013856689   -2.10536294263072    2.09000235777011
O          -1.94900796165079    1.94011794248331    1.12499196596995
H          -1.12849092095790    1.40809265907757    1.00027790880277
H          -1.71480910561305    2.84033798789007    0.89081927631721
O           2.78403587175983   -1.39165644686164    0.61626819437745
H           1.68785005997913   -1.47554051429022   -0.27960066104007
H           2.98335108769475   -0.42484778924570    0.50949566926854
H           2.29881416496358   -1.48916079495699    1.46063824991703
N          -3.17890235739121    0.13000459848019   -0.34653655068553
H          -4.16146209699933   -0.02905697257936   -0.54091421361222
H          -2.56994469256330    0.26690369898183   -1.19080153919476
H          -2.98346433249530    0.94414571722069    0.28957112422136
H          -2.64846937945136   -0.70810110335901    0.07045809864460
