    26
        -50.45213665  Gyration_radius:  2.4446997458 Dipole_moment: 2.909
 S          -0.62523153168201   -0.53168528760926    0.96839007069910
O          -1.85721747722835   -1.22459475285648    1.16027940217520
O          -0.65941588229903    0.87675115981697    1.27970063421781
O          -0.11102314898614   -0.72489630756754   -0.46913858936037
O           0.51183094323111   -1.14089097838627    1.80268414690016
H           0.86368525259143   -2.01560548996188    1.37742454063065
H          -0.54147260958553   -0.03084939842442   -1.14189368857481
O          -1.13581560150512    1.02557915552338   -1.90303371631264
H          -2.00565267203299    1.07465669765000   -1.40842281036133
H          -0.59974020048864    1.78239633543119   -1.61107831887237
O           1.57865184396629   -3.12600774118627    0.69491512252337
H           1.97641764174287   -2.62182651853936   -0.07521012327183
H           2.31563699614428   -3.41455952016334    1.23874300218955
O           2.33721652314693    0.62352626797515    0.46500733281904
H           1.72987311704871    0.26802818354264    1.12323483223093
H           1.88343797164902    1.37146639403407    0.04801430325768
O           2.51948144727480   -1.54074473903394   -1.15158220320720
H           2.62459575851429   -0.72970705740754   -0.60804301918547
H           1.72485782296540   -1.39014755779071   -1.67135665093518
O           0.45915200982952    2.60695569127482   -0.31843454365535
H           0.00462306784265    2.04207446124604    0.34945775752269
H           0.50807827480490    3.48864064513467    0.05420222283002
N          -3.21105957750135    0.88857927326980   -0.26902708221953
H          -2.91080239909367    0.05635437963691    0.23683300375695
H          -4.16544741305942    0.73989471704019   -0.57431878732817
H          -3.21466016732099    1.64661197734259    0.40265316153246
