    26
        -50.46596397  Gyration_radius:  2.41006497905 Dipole_moment: 5.229
 S          -0.63976653781164   -0.83765539879684   -0.46337360681691
O          -1.65780117787055    0.15407138247241   -0.74366877946945
O          -0.90894500321884   -1.57253589337504    0.77833878826046
O           0.70833272180393   -0.27931554121644   -0.41204482402487
O          -0.65957597946302   -1.89306463728186   -1.60129110300875
H          -0.74542268830848   -1.33271851041815   -2.42452943495144
H           1.88102861859165    0.27128532901795    0.87373630240282
O           2.04284898828299    0.24407446349406    1.83509568288137
H           1.20875408492894    0.63224266893913    2.19686698362924
H           1.73416365355292   -1.19398850178324    1.98103016356662
O          -1.01045405286459   -0.07974846252465   -3.40839957002107
H          -1.80557963163976    0.21786182658979   -2.95353460074283
H          -0.32836190113595    0.59486390834732   -3.18350966501291
O          -1.02486063818069    2.54652496113670    0.06935414107287
H          -1.82677733588490    3.06375881615813    0.16243717021523
H          -1.30055766358076    1.67356078506170   -0.29765467807874
O          -0.50421084236617    0.83963264611584    2.19227846747308
H          -0.86237620575499    0.05297214640277    1.75856435575010
H          -0.64325146112980    1.57679479634032    1.56941290601918
O           0.64426941460154    1.66680887945826   -2.21984623492235
H           0.83592120538529    0.96356855748678   -1.57007505473880
H           0.21352974817420    2.35780565810326   -1.70410951021516
N           1.29450170178610   -2.20791849347401    1.92689664248221
H           1.86432629264123   -2.81900457440893    1.35102313989222
H           0.34034241344393   -2.03263161018389    1.43815911950188
H           1.14992224597552   -2.60724518162333    2.84884320882577
