    26
        -50.45119707  Gyration_radius:  2.46607846748 Dipole_moment: 3.710
 S           1.41815704454517   -0.15776733402879    0.46435394304081
O           2.04239367694603   -0.45449352778804    1.71349004051993
O           0.34229824344739    0.81101755086122    0.56806545595220
O           0.84867035535490   -1.44382081441746   -0.18259116518328
O           2.43497935069874    0.29932874829222   -0.55468608209410
H           2.03246129824070    0.19923542750806   -1.52241333251739
H           0.08459641882204   -1.81788142121909    0.35233063582178
O          -1.06578369938210   -2.31573268235378    1.30505104839009
H          -0.91646703091441   -1.68608686404200    2.08361306859179
H          -0.86579155841554   -3.20042364833557    1.61699624898302
O          -1.04259172341775    0.69605284201612   -2.69766266388456
H          -0.83526352623463    1.58469956727751   -2.35702475748979
H          -1.53451874730377    0.26199706410384   -1.97518992689809
O           1.47282023681938    0.12201555418309   -2.84595622036298
H           0.46896798291759    0.22364363116264   -2.81171948158765
H           1.79163269836137    0.89278527906398   -3.32306730906148
O           0.04691471479008    2.75619337900865   -1.27383535153980
H           0.22634399484201    2.10378992931369   -0.57019477982637
H          -0.43113128461263    3.47444805783152   -0.85686875559737
O          -2.04495546270403   -0.14048876476348   -0.30603518552622
H          -2.08293739785356   -1.03594420510485    0.04229240119187
H          -1.25748318954565    0.26648780770561    0.09357821253620
N          -0.40977204652188   -0.57076308437763    3.13488182158288
H          -0.84731375673971    0.31473243973694    2.91100614927962
H           0.56719464894134   -0.49141897015140    2.85184952144084
H          -0.44342123119262   -0.69160599148784    4.13973647424292
