    26
        -50.44995107  Gyration_radius:  2.61739632942 Dipole_moment: 7.197
 S           0.74291670605997    1.06964789590896    0.63715196000820
O           0.77498618918814    1.13791600780850   -0.79043876423789
O           1.18157975251558   -0.17550942676762    1.22441574635204
O          -0.68163588671386    1.33364893411577    1.14003274493480
O           1.57675480026380    2.22046023840209    1.22382767916098
H           1.56323837212912    2.05206245657570    2.23128036359416
H          -1.30713869143938    1.57604382445585    0.31493863396611
O          -0.40018859767296   -2.03068079951972    0.21160883071844
H          -0.59046841728953   -2.62780931691020    0.93756885187002
H           0.22885771192020   -1.36240710108602    0.56134118952633
O           0.14027759965217   -0.32392537250402   -3.05708551002276
H           0.53245230622467    0.26044711845852   -2.39274799061518
H           0.55871935929661   -1.19277933398306   -2.91679000242075
O           0.75556366433145   -2.85517243228245   -2.17723959973845
H           0.41241467381963   -2.62207537415035   -1.29727344921330
H           0.09821621707530   -3.42229599192755   -2.58488112783150
O          -1.98906639207003    1.78314508186387   -0.91869518191676
H          -1.27903409367397    2.07053479908059   -1.50312105570858
H          -2.18443279966669    0.83359126819395   -1.20062757918233
O          -2.07340645214417   -0.69896649907310   -1.63502352818269
H          -1.65771332894401   -1.20192788337986   -0.92032461181210
H          -1.36363083601106   -0.59547109848764   -2.31598354559476
N           1.30571034868651    1.36395466882039    3.62702906388202
H           0.38727227666522    1.57841110821053    3.99205785434906
H           1.97927312354910    1.39879429821868    4.38068511690231
H           1.28848240433135    0.43036293002410    3.22829391123928
