    26
        -50.46949747  Gyration_radius:  2.56243726385 Dipole_moment: 5.885
 S          -0.41796446864333   -0.31533976239711    0.20263182859949
O          -0.07439253797678   -0.39703042744917    1.61818637834454
O          -0.60858916292696    1.20546823682375   -0.06337158656004
O           0.73157394106954   -0.73591019987878   -0.62226203779960
O          -1.62460784587274   -1.01544678339269   -0.15458855881539
O           1.31788070568581    1.83208328171367    1.82841926434008
H           0.86135765489151    2.43772170723526    1.23789736251186
H           0.69714365462835    1.07371533114075    1.91788668737479
O           1.98865313814710   -1.70103099638355    2.64226738428467
H           1.98325357707188   -1.52992905466757    3.58578923402612
H           1.12187103222595   -1.37944145613517    2.30659975042570
O          -0.70007367994720   -1.11297079934768   -2.84426724977493
H          -0.05989183040946   -1.06579094637995   -2.11052332790047
H          -1.43584250862333   -1.62416403324138   -2.49491409950702
O          -3.76204255336624    0.17996260362872   -1.19053098333653
H          -3.05443350314518   -0.35894819332611   -0.77851875789915
H          -4.28645272043711    0.52773974799488   -0.46825759666524
O          -1.63109737994619    1.33964766643608   -2.36289408967806
H          -2.55113869226414    1.10169412889684   -2.13092808930795
H          -1.00319219372467    1.31742005349604   -1.00860244123639
H          -1.25952775028362    0.52346129227848   -2.77071820065447
N           2.80162185584770   -0.05219253157310    0.72178564514380
H           3.70174748808746    0.01876682218953    0.26123370676310
H           2.45988593594391    0.85650480649646    1.13024173748767
H           2.01454160894302   -0.36800925775502    0.05216566263920
H           2.78971622500335   -0.75798124639824    1.49527238719314
