    26
        -50.46837694  Gyration_radius:  2.41142490505 Dipole_moment: 5.487
 S          -0.66654278188640    1.11718148995955   -0.09238737678475
O          -1.15861487554259    1.26756673098796    1.26473648294330
O          -1.15680547451369   -0.12485040855113   -0.70148615963176
O           0.80374068742041    1.13738682806239   -0.13903754127314
O          -1.19118833955315    2.30568003716718   -0.92149417987908
H          -0.57650733033815    2.38306993630153   -1.71050752545751
H           1.36805697977355    0.70625337509407    1.42124299388864
O           0.56424412312076   -2.11345814486938    2.03671721950274
H          -0.41749112711101   -2.07243304754375    1.97757756077793
H           0.85475342096689   -2.20762561984197    1.10462028380453
O          -1.97074089937532   -1.43027751350844    1.52326479855651
H          -2.29125367941433   -0.67524005364294    2.02333440845763
H          -1.81400288120941   -1.07539720872002    0.62964963646414
O           0.67511969352494    2.09498733892966   -2.67238821627781
H           1.16543398077424    1.79090435049102   -1.89429054189427
H           0.38719876378461    1.28656877434381   -3.14176966274616
O           1.04687749916530   -1.65275995879173   -0.57402212066689
H           0.18292521049759   -1.20558833254529   -0.66751239512807
H           1.69332345957244   -0.94917175454059   -0.67484809616670
O          -0.31821480620206   -0.34860943986510   -3.24609649636138
H          -0.80194162345101   -0.30686312136968   -2.39988325262144
H           0.12152075971729   -1.20173998063332   -3.25854812065484
N           1.00770227290319    0.40255381813211    2.35181954454194
H           0.90614924672436   -0.69036895212296    2.33824375702968
H           0.03743806717784    0.80453091122561    2.29077946999136
H           1.54881965413250    0.75769994573947    3.13228554916711
