    26
        -50.45597403  Gyration_radius:  2.4698998955 Dipole_moment: 2.834
 S           1.44294250535494    0.33413399264431   -0.90370154917393
O           0.65713733207679    1.10194900860970    0.03400690815568
O           1.13684329252097    0.61321240025255   -2.27843811344632
O           1.25300939454969   -1.16277661243527   -0.61010663475114
O           2.92433521711499    0.55268255291833   -0.64382843052215
H           3.06850690210638    0.41249385496440    0.36554613165217
H           0.26735006553738   -1.44620928670665   -0.76486938517107
O           3.08824613864978    0.29114096696829    1.86358930924283
H           3.02453864276327    1.18773415315380    2.20095096940521
H           2.21710923440650   -0.15779609641592    2.10367862454136
O          -1.44438420274422    0.39463577153041   -2.71880189148233
H          -1.62438386357170    0.35541515215779   -3.65990980186063
H          -0.47646505117987    0.55595906485480   -2.63077085419167
O          -2.37057018438861   -0.52509352739066    1.11686710304034
H          -2.28078734989968    0.37139184062540    0.70339293192611
H          -3.30918593355775   -0.66912862027805    1.24524841172970
O          -1.17891998118398   -1.67854943301239   -0.96736680419384
H          -1.62554969036594   -1.36724868835951   -0.14345572191756
H          -1.42538553392339   -1.03863336954385   -1.66238616715839
O          -1.95909712991276    1.68658105075950   -0.27422121932987
H          -2.04031073179175    1.41396968953912   -1.19882057119289
H          -1.00033600919598    1.70090138329451   -0.10644022798325
N           0.67718426441083   -0.67402327744288    2.28871040560127
H           0.28556606383012   -0.02070605310243    1.61503434676463
H           0.11570906771733   -0.63037634321385    3.12969753118479
H           0.57689756060235   -1.60165955447076    1.89639470900501
