    26
        -50.45498709  Gyration_radius:  2.47647309921 Dipole_moment: 4.395
 S          -1.47653394278572    0.12285146588051    0.99442117816744
O          -1.45057776505007   -0.61875030488492    2.21543570170438
O          -1.65508252326343   -0.69215207226550   -0.18868238650224
O          -0.16042725885047    0.92068452338343    0.82390026197719
O          -2.51603857520506    1.22308836268888    1.05501507313971
H          -2.27248747190183    1.91259906622755    0.31734311063599
H           0.63722916084175    0.26465611311058    0.79033358042311
O           0.85943502417561   -1.62872342570355    3.13767113904500
H          -0.01837913063814   -1.23445970434101    2.96908468099313
H           0.70679309036091   -2.56782328736439    3.26067773998732
O          -1.68484825473542    2.79825929320919   -0.71263786121192
H          -0.88015120033290    3.13107813746141   -0.30656077189004
H          -1.38749973280069    2.14689567837995   -1.41931392044200
O          -0.80142346527603    0.88423216731671   -2.21246314423237
H           0.17898002153644    0.84437282482313   -2.11666467011341
H          -1.16214942640177    0.19618792591223   -1.62890604947858
O           0.18342088332970   -2.56455523301369   -0.57822300699498
H           0.21695276188303   -2.72510914742121   -1.52324183585981
H          -0.61051263953371   -2.01326591847545   -0.42365677531913
O           1.67380649120409   -0.80885305596681    0.75398843768977
H           1.26167480665514   -1.53519751926269    0.23086087224611
H           1.61405332453958   -1.11087230132809    1.69039064739518
N           1.91624483708926    0.77158084100355   -1.83482850858249
H           2.10478026645723    0.30881337817870   -0.95188297869365
H           2.30870731758559    1.70306002883850   -1.78119955483589
H           2.41403339106561    0.27140214366348   -2.56086095942911
