    26
        -50.44914924  Gyration_radius:  2.50120270595 Dipole_moment: 3.442
 S          -1.06186183359247   -1.00376984588112    0.49192786587531
O          -1.45097724687270   -0.93288943394799   -0.89256697857837
O          -2.11270381091263   -0.78203564730033    1.43568062741849
O           0.07959411516722    0.01394150314958    0.75396971147016
O          -0.35396801408395   -2.33588515163471    0.73232793662950
H           0.25900424325768   -2.20505906280009    1.54605797757642
H          -0.08456990683079    0.91089997792699    0.26764698789887
O           2.40066919117933    0.69326560034003   -0.94624396934075
H           1.68730661943923    0.46761031556322   -1.56794700377343
H           2.10437640660730    1.48213128107441   -0.48670159215940
O          -0.42304799694565    2.11617352899601   -0.53980185121366
H          -1.41226536300814    2.07034807648617   -0.39461681841514
H          -0.26847474523796    1.79958325712286   -1.44215206532042
O           1.22654878443652   -1.75149014194381    2.60756281943323
H           0.89151492686572   -0.89692889747974    2.89141767790208
H           2.01315731331497   -1.55109384801026    2.03626717035052
O           0.17231200471750    0.28110310319030   -2.53518151241573
H           0.15422901680960   -0.12297094448372   -3.40383764240280
H          -0.44414727185152   -0.24234929131502   -1.97012135705575
O           3.13629534018771   -1.17240389944249    0.87449541245603
H           3.39525326286942   -1.92224182380626    0.33693634487425
H           2.85978670184232   -0.46943762848462    0.24771420647608
N          -2.95768744460042    1.52991435660841   -0.06678334291809
H          -3.65750927557680    2.14855042797904    0.32514643393161
H          -2.80218833144695    0.77155838755163    0.59622799157438
H          -3.35064671573459    1.10347579053267   -0.89742502023538
