    26
        -50.45712483  Gyration_radius:  2.42728416861 Dipole_moment: 4.248
 S          -0.85314389662072    0.71872839014452    0.61929670946668
O           0.42585118873423    0.98727215119340    1.25005120479323
O          -1.65253887367154   -0.26264326203639    1.28406152591301
O          -0.57749043539770    0.26471980191185   -0.82937382277852
O          -1.61539279566878    2.01552492340074    0.43915083459713
H          -0.89641389217135    2.72618449980543    0.18157199573724
H          -0.08164284485817   -0.66575260796135   -0.78466553722903
O           0.52289714574255   -1.95162529320765   -0.51673865639848
H           0.76493039089963   -1.92833969353946    0.44085813562217
H          -0.31688866106595   -2.48302350801072   -0.53472312790517
O           1.12274430692638    2.09076792333172   -2.19821887586787
H           1.79571762965195    1.54655800867936   -1.73760403396556
H           0.36294712065469    1.50941112569418   -2.30532430884834
O           2.43922645500530    0.44385397640213   -0.51710745417903
H           1.84238080817583    0.64894552674747    0.22192396393102
H           2.33123232761199   -0.49275170381350   -0.70397250241648
O           0.31383042241152    3.49471486960836   -0.14332874781723
H           0.93671295989122    3.20921218568077    0.53304766575780
H           0.64581936095023    3.10956377922333   -1.00459621128845
O           0.74114238905985   -1.54146036474148    2.10258730847745
H          -0.15652058087317   -1.69758162698866    2.40941828098524
H           0.81240599564687   -0.57522951992679    2.02995720710219
N          -1.96654045571471   -2.81052043269889   -0.14630352817201
H          -2.21583830300602   -3.61155685527291    0.42055471772670
H          -2.61231614187787   -2.77299069892496   -0.92487742762527
H          -2.11311162041039   -1.97198158468323    0.41435466439325
