    26
        -50.46108261  Gyration_radius:  2.46408894817 Dipole_moment: 4.773
 S          -1.06640036310204    0.73409684073622    0.74517169756817
O           0.36801813654774    0.73535312975129    0.41442527385570
O          -1.29047775866697    1.25878851588739    2.06846892364909
O          -1.61492490450805   -0.61320454065209    0.56285638266345
O          -1.75994377117348    1.66217132417008   -0.28683946003251
H          -1.81326619451448    1.10207144069770   -1.11536622467696
H          -0.65365153017433   -1.60464127828623    1.01495719136217
O           1.91427485337230   -1.15714221010752   -0.36126691181885
H           2.81443825395564   -0.86420023330165   -0.20752136873189
H           1.33528074248674   -0.38811977529920   -0.10138262384581
O          -1.72125046591891    0.26037715172840   -2.45253320404711
H          -2.03755420987188    0.73214066230955   -3.22576525179093
H          -0.76303331823972    0.05687628866198   -2.62493951951974
O           0.87213838416465   -0.01250421498571   -2.81755991157474
H           1.06192909281155    0.89811058182576   -2.51307424273383
H           1.25498915151792   -0.59805009080002   -2.15076184555975
O           0.20180562393635   -0.38869954187084    3.46163647710125
H          -0.24831398238510   -0.44648190612477    4.30690158920554
H          -0.28542224321212    0.30821907154354    2.95572700443127
O           0.95554804003280    2.39379602165238   -1.55545363418867
H           0.79391257738890    1.87870423902992   -0.73678047894852
H           0.20349880011511    2.98351411141640   -1.63404652653050
N           0.18338272603061   -2.15271200483875    1.46366045206444
H           0.34539316826702   -1.62280839229051    2.35353214157373
H           0.98477048635260   -2.02600156495772    0.81339272520768
H          -0.03514129526562   -3.12965361593209    1.62256134530066
