    26
        -50.44774575  Gyration_radius:  2.52872925176 Dipole_moment: 1.674
 S           0.03526770372234    1.10784678631740    0.60174646280315
O           1.41442777079945    0.66580733657386    0.55871928750504
O          -0.43689821496768    1.40756744368986    1.91774486708758
O          -0.85193736041262    0.06584454012404   -0.08088519110063
O          -0.08869469022286    2.31614189083224   -0.32905753442326
H          -0.99609808701400    2.29104353031307   -0.79247417314818
H          -0.76036362718710   -0.90045865234892    0.33884616774824
O           1.30815489615768   -0.06779729867361   -2.05166045469872
H           1.40254596345898    0.39756797673317   -1.20568162081620
H           1.47516775426772   -0.99405179520424   -1.85127014735751
O          -2.22383407475625    2.21105212797454   -1.68604391882830
H          -1.91140428077458    1.48175658677717   -2.27857003101534
H          -2.28972675812170    2.99988291730922   -2.22993576445279
O          -1.00406538154212    0.51849399931890   -3.31791607129158
H          -0.65469381234189    0.84516366976943   -4.14909658354827
H          -0.22290596812898    0.23403855479025   -2.79661748221102
O          -0.45682260572614   -2.15315199004809    0.98068574420041
H          -0.40545730848265   -1.87257355429124    1.93767356273395
H           0.46265281741810   -2.31332346253003    0.69550360862174
O           2.14649980514686   -1.88220222932332    0.27278449700599
H           2.94751908290011   -2.10251088742608    0.75008601406953
H           1.98950887660986   -0.92686166263498    0.42066075268664
N          -0.22532730778172   -1.02666926422546    3.37448294889896
H          -0.98579492275782   -1.15258566502827    4.03097097772292
H          -0.30754426998934   -0.08317643532337    2.99046228565657
H           0.63982400972250   -1.06684448346739    3.89884178614558
