    26
        -50.46949756  Gyration_radius:  2.56217268949 Dipole_moment: 5.893
 S          -0.42729268648316   -0.35571781839928   -0.06592432090492
O           0.77302292855654   -0.34562924915869   -1.05543781767297
O          -0.09791327566165   -1.40285105025290    0.89512521080608
O          -0.42219021633301    0.96196511431872    0.59919807149594
O          -1.64536961777801   -0.58717294645435   -0.79831393991734
O          -1.73680679828094   -0.85517192899684   -3.44262427325337
H          -1.53837282771538   -1.76800080230185   -3.65501955014313
H          -1.82030245271916   -0.81438504462831   -2.46684336120527
O           2.51704664178582   -1.07720030199285    0.97189463386168
H           1.58957740145159   -1.40072163156742    0.91248912233705
H           2.73917241713595   -0.84101830314050    0.06702637798795
O          -0.14503718011984   -1.15471292002957    3.52945314235968
H          -0.30700181329355   -1.32117713059915    2.57368966031769
H           0.15819719872890   -1.98885784573046    3.89251409146161
O          -1.78380866176825    2.20363346074182   -1.33292834262453
H          -1.32597770216937    1.88357080173837   -0.53392552124194
H          -2.50156732124536    1.57866604374650   -1.47065202198685
O           0.02926327239721    1.12300980709099   -2.96370319491794
H          -0.55173836724902    0.48515270996711   -3.42460038850890
H          -0.59016684940258    1.72680959090644   -2.49211270752195
H           0.52898135143398    0.26607130373023   -1.84776728976690
N           1.33892717018336    0.76870789276496    2.44863297512937
H           1.72583293720955    1.60676828710193    2.86746301904659
H           2.05247810671985    0.17047773771207    1.95628140163921
H           0.84799972020489    0.15336847221772    3.13894791436494
H           0.59304660442667    0.98441576120832    1.69713711886099
