    26
        -50.45263175  Gyration_radius:  2.5363618875 Dipole_moment: 7.045
 S           0.78433934853695    0.22365837428516   -0.79940090872624
O          -0.40605764967962    0.79718387229576   -0.20108152437023
O           0.58313188200902   -0.31773055941594   -2.10803733388300
O           1.33816767383596   -0.84253177359585    0.14285236705465
O           1.88366301587827    1.28137750548081   -0.87667341152592
H           2.06975738373638    1.65073766700180    0.05565918534898
H           0.56241319488063   -1.11956336204293    0.81754176839737
O          -0.63918846943349   -1.36816108776191    1.53299339641687
H          -1.09140180643859   -0.52927775693882    1.39134969758823
H          -1.11439397551842   -2.03491521628566    0.92982422477828
O          -2.22762823386023   -0.54926461500368   -1.72686748136917
H          -1.70681642231834   -0.66902728058048   -2.52604261930387
H          -1.70756782265665    0.06098422536218   -1.18175597153251
O           0.58961538774712   -2.99890079569038   -1.67550302655421
H           1.33148718802099   -3.08148365349060   -1.07239677436431
H           0.61773712119226   -2.08434327792699   -2.00475648629070
O          -1.73678292820233   -2.80458646502705   -0.28650641568565
H          -0.96768045125502   -3.10326323093735   -0.81104035327526
H          -2.14702494591632   -2.09761943462626   -0.82298089118412
O           2.24311026016043    2.30386347514350    1.42049031967366
H           1.30685609728818    2.58274965771626    1.64970277710540
H           2.76193848122323    3.10581613206430    1.32561491590740
N          -0.31146319034604    2.91072270222852    1.74077267981804
H          -0.56545735595764    2.23219694360987    1.02336483405522
H          -0.68039838705984    3.81092301337712    1.46140566341994
H          -0.77035539587836    2.64045493077197    2.60147138849974
