    26
        -50.47327831  Gyration_radius:  2.37185899062 Dipole_moment: 7.407
 S          -1.16532941915245    0.93065403631486    0.18246817798985
O          -0.80130098396637    1.79732983691325    1.29160068194373
O          -0.84092540500733   -0.47559661409029    0.50611345413758
O          -0.49593399948574    1.32119404354802   -1.05047511056486
O          -2.68845151572127    1.01557516869187   -0.00752305904367
H          -2.91179710263854    0.19279101151312   -0.53867864566479
H           1.21507737910942    1.25093009471639   -1.12351905027665
O           1.11237727733004   -1.60410852792269   -0.87030996703164
H           1.45025398644055   -2.29987353001776   -0.30408281827792
H           0.35175953810718   -1.20604432460535   -0.38778176148542
O          -2.86744025907381   -1.22649157953961   -1.23686389014114
H          -2.23691111206735   -1.09343340538968   -1.98796993149598
H          -2.35218696859943   -1.65738831905217   -0.54671203032461
O          -0.81485179925509   -0.65803358321020   -2.80834193334496
H          -0.06146717278891   -1.20221645694518   -2.55158717593714
H          -0.69499932358019    0.18575311781098   -2.32924812711048
O           0.79430001547064   -0.99290470460464    2.50242818887169
H           0.29441320574315   -1.04980741763343    3.31810120282582
H           0.12648500870597   -0.85902909218755    1.78769982968136
O           2.11311457453176    0.92467839952154   -0.89767368518020
H           2.05110305786460    1.21088521945275    0.62516779906529
H           2.03942407058473   -0.03956986726985   -1.02578230888771
N           1.72110443977129    1.36445003306376    1.63802755564548
H           2.30578049010258    2.02321962008319    2.14000491208403
H           1.64663009042571    0.44336613757245    2.12150731894129
H           0.70977194718525    1.70367070324948    1.55343039361269
