    26
        -50.45213657  Gyration_radius:  2.44455688913 Dipole_moment: 2.910
 S          -1.23736449723586   -0.28537176930225   -0.02573918884001
O          -0.86268651992440   -0.53353499482112    1.34541718331101
O          -2.06521174430610   -1.28501057596807   -0.61764084773887
O           0.02996623385961   -0.05959678196841   -0.86913176209605
O          -1.89825880908291    1.10108079706884   -0.05882075564960
H          -1.84014580349427    1.52391096100180   -1.00095454854313
H           0.79279254077303   -0.75438124585883   -0.63462599650145
O           0.55510172216239    2.20642702035870    0.94013733204374
H           1.12162304037256    1.53319387790276    1.34631896700019
H          -0.33414533378190    1.83620930519054    0.91517398796194
O           1.75075072484077   -1.69722479345113   -0.14254294124785
H           1.11053112407442   -2.43366644984768    0.08443339471727
H           2.00611583321694   -1.27493713207879    0.69519038217305
O          -1.57105941143656    2.28694790926689   -2.24803376294317
H          -1.95307527260342    3.16493148196219   -2.17489188103565
H          -0.57857072096948    2.40280791488276   -2.16343423845635
O           0.97700817973466    2.47643204108137   -1.72035884405727
H           0.92003377550019    2.52813345246848   -0.74142427257229
H           1.25907530015423    1.57627387512905   -1.90576316072370
O           1.59602001991143   -0.15582094191849    2.12797361092829
H           1.70144684153957   -0.20579936019669    3.07926406586712
H           0.64520796948971   -0.33424486504823    1.93864763037383
N          -0.27543428537516   -3.30506061670089    0.40843122054940
H          -0.99854760997356   -2.74573604859255   -0.04200794754090
H          -0.49258436816063   -3.31094331340878    1.39765778854737
H          -0.35858893927378   -4.25501974717349    0.06672458445392
