    26
        -50.45695816  Gyration_radius:  2.43958138164 Dipole_moment: 1.632
 S           0.38234062458392    0.27338613290012    1.31384198513354
O           0.38581535145808    1.43221566282586    0.44639963627703
O           1.68370118878239   -0.24845451439697    1.61009964014687
O          -0.47285436780203   -0.82900138183331    0.65494429615898
O          -0.38046997300450    0.58080817490089    2.58529179016471
H          -1.18598083910606    1.17284172074118    2.27442367459115
H           0.01207450531299   -1.19089713765267   -0.20256329393042
O           2.36861865298654    0.56538415164308   -1.13702453671596
H           1.73682779317410    1.07299791936690   -0.59756790316530
H           3.08389746688353    0.32546461094298   -0.54242617927958
O          -3.04542323451405    0.17434923931382   -0.11402062808058
H          -2.52074152831876    0.42510474885718   -0.91538298311534
H          -2.59739066349805   -0.60033482228511    0.23880627736319
O          -2.15294634232273    1.98329941064559    1.53630160743528
H          -1.55237848348672    2.46193508254437    0.95450564540469
H          -2.64477911541641    1.33658563992211    0.94756075382020
O           0.86628529847725   -1.61772530855816   -1.30591771972121
H           1.44138319726026   -2.24687893523079   -0.82377051234595
H           1.44670655222665   -0.83369805105203   -1.46081911194431
O           2.43280561675765   -2.63510350412326    0.60393517489007
H           2.28094328284470   -1.78797755252497    1.06432398114509
H           2.30199562872011   -3.32503457999868    1.25586233402234
N          -1.21176902786552    0.82582594152993   -1.98124749595680
H          -1.30814454555879    1.48651576274155   -2.74176911547900
H          -0.79270006968399   -0.01698994175712   -2.35584831550488
H          -0.55781696888470    1.21538152052670   -1.30793901132186
