    26
        -50.47135804  Gyration_radius:  2.40979749496 Dipole_moment: 4.536
 S           0.39218134875545   -0.18487201453056    1.70372778190637
O           0.95631686393941    0.97975047468651    1.01685475838448
O           1.34555582921697   -1.22964665430978    1.92824935923066
O          -0.81447369714745   -0.63905225940971    1.00879523771684
O          -0.09893119343504    0.33762048214302    3.10805905153952
H          -0.79970276400488    0.96030959691310    2.89555218163534
H          -0.94557975487286   -1.55296850225156   -0.47604185178287
O           1.81118251092428   -2.42757742750053   -0.38376988144114
H           1.63353763396192   -2.04569961317026    0.50482190308325
H           2.45168875523860   -3.12813903485181   -0.24848567334307
O          -0.78088762932998   -1.92162848746842   -1.36142079929034
H          -0.61270709206632   -0.48731553147480   -2.23446748123874
H           0.09210379555192   -2.33142291060471   -1.28452067199537
O          -0.28647905837493    0.40513308085555   -2.51420229990642
H           0.67923093704766    0.36406930834909   -2.31366339883006
H          -0.68690453883468    1.36595357629001   -1.48510503537986
O          -2.33426992573617    1.33298900680186    1.55710607225249
H          -3.21060364499888    1.07473204609195    1.84809893066225
H          -1.86314405189419    0.49508831325657    1.31228485893142
O           2.08830535053866    0.15484607577186   -1.34234906393080
H           1.87471316794551    0.52462898879415   -0.47002537708780
H           2.15722173458909   -0.80217436031411   -1.19525708227928
N          -0.77010197449336    2.05351465572456   -0.61770345610138
H          -1.66231543459193    1.97351320084521   -0.11874959141844
H          -0.59159661904731    3.01223185525637   -0.89643794384613
H          -0.02434055887720    1.71611614410878    0.05864948253739
