    26
        -50.45966111  Gyration_radius:  2.45089198467 Dipole_moment: 5.810
 S          -0.21446901035846   -1.03692295264026   -1.02920416304713
O          -0.19356984628551   -0.98726725964594    0.44064170211045
O           1.05069413683066   -1.42530102862855   -1.58427040692520
O          -0.56924712843481    0.41852909784367   -1.50029910150681
O          -1.36087469005494   -1.81741836032853   -1.50125370083531
H          -2.44790994308596   -0.95309719367633   -1.30943494611669
H           0.19846212092692    1.03665149706025   -1.26419055773195
O           3.21972637453976    0.68707614670996    0.62289586867659
H           2.97686173704271   -0.27193047776278    0.65889342397732
H           4.13265834012351    0.71184977975063    0.33476649084530
O           1.24314215150059    2.00177224607125   -0.66411474924904
H           0.82582632820283    2.12924525820681    0.20848870533030
H           2.07068041761955    1.52877564233531   -0.43815148036859
O           0.44374968999597    1.24964665457247    1.79798828455858
H           0.27783524571896    0.39625288541158    1.34884651872487
H           1.36171276926768    1.20921533803310    2.08131362197754
O           2.44535222382409   -1.84864312560207    0.61143016472628
H           2.08963181600697   -1.81951399617842   -0.30113523905521
H           1.65524464773901   -1.90531911291595    1.15801051598921
O          -2.37052331260587    0.09947901648988    1.40787309729196
H          -1.59442378442609   -0.45633160940436    1.15509730565655
H          -1.98106979185093    0.89059079625138    1.79303565711129
N          -3.18658667876951   -0.14053206584717   -1.07666453061381
H          -3.02137209742172    0.06613945952888   -0.04775769626215
H          -4.14276471206980   -0.42359809622374   -1.26446210939614
H          -2.90876698398018    0.66065146059673   -1.63834265587410
