    26
        -50.47771706  Gyration_radius:  2.37000546868 Dipole_moment: 4.705
 S           0.75511997259021   -1.13856301499525   -0.54710697982261
O           1.10997828505247    0.21554269116508   -0.97828041214760
O           1.53636812315227   -1.56859463789202    0.59064636583036
O          -0.68276660955765   -1.21696683071509   -0.25591409884712
O           1.03552348421340   -2.10429104749138   -1.72965770103833
O          -2.35330926832318    0.15931271137680   -1.68766672828797
H          -1.77527544389951   -0.41341205049926   -1.12502133263824
H          -3.21331844737167   -0.26239760285661   -1.70664704689661
O           2.44803533423674    0.75205865319635    1.40773769172487
H           2.26525210181163   -0.19278473185578    1.19758088951079
H           2.50560516149668    1.16305892172730    0.53866242218895
O          -0.62660818759101   -1.32156786671723    2.35577041417957
H          -0.81467617454103   -1.37932207565604    1.39143439796543
H           0.21930784607479   -1.77509198741219    2.43904885466545
O          -0.74864894550634    1.92345018407128   -0.19981125001768
H          -0.00994430746915    1.38302180738540   -0.55898238277319
H          -1.53336351674197    1.58184786156214   -0.65189746065721
O          -0.12659351728822   -0.34619959292143   -3.29403759697237
H          -1.03476908281992   -0.14892270059681   -3.01028781157133
H           0.43578231650131    0.21367027160076   -2.73763257131047
H           0.59932514535629   -1.65374492977594   -2.48966904335643
N          -0.01177683700594    1.24659453049730    2.23836763441170
H          -0.19786072175540    1.86374839442977    3.02083602742322
H           1.02836494384087    1.16575104799921    2.03152704038296
H          -0.35108239603122    0.25627858457344    2.41920131368992
H          -0.45866928842653    1.59752339979703    1.34179937435920
