    26
        -50.47496893  Gyration_radius:  2.40026637772 Dipole_moment: 5.072
 S           0.38959287758540   -0.78101575036526    1.45726531431068
O          -0.12118338940887   -2.05917307716526    1.02813568391426
O          -0.66613590386466    0.22859669708351    1.60433055501373
O           1.41476259902463   -0.26312649480772    0.54554371790125
O           1.05723727609919   -1.00256150281166    2.84392213066395
H           1.25906591098371   -0.10162728056181    3.15825269070788
H           1.41279772332273   -0.83961835340017   -1.08535748098783
O           1.01795812607515    1.63276692047078    3.08811820879650
H           1.51410516855725    2.14297085984365    2.44088606576153
H           0.20011708535122    1.33745991899195    2.64602883835159
O          -2.14207582882531    0.01605659687439   -0.62589978870065
H          -1.72416566735628    0.08282270322962    0.25884196504540
H          -2.03975551596894   -0.91304660164277   -0.89202413240798
O          -1.11068597916675   -2.45188083834112   -1.31522510729642
H          -0.73388848217020   -2.38238589925007   -0.39953097681321
H          -1.41846329396757   -3.35482954158143   -1.40612428792104
O           0.69030557287459    2.20100053496414    0.10858312595949
H          -0.12276928068509    2.18548806040072    0.62561291944859
H           1.10044741442337    1.31519183013200    0.27558602262226
O           1.12987270189254   -1.00543328023903   -2.00959226912331
H           0.43472050668948   -1.68270617700727   -1.94515176633197
H           0.33162690850922    0.31951442816542   -2.25385119797433
N          -0.31476050250620    1.16496872180211   -2.11826687920718
H          -1.18160209005845    0.77903655893676   -1.62945783535078
H          -0.52879011886055    1.64079020435272   -2.98644504156003
H           0.15166619146438    1.79074075192673   -1.41418049481938
