    26
        -50.45621101  Gyration_radius:  2.46379387076 Dipole_moment: 3.896
 S          -1.83054038890390   -0.11117075701801   -0.03054831963395
O          -0.99168868744093    0.99749288609831    0.36715183324584
O          -2.26041729259778   -0.92021279992191    1.07242208904139
O          -1.10109956967327   -0.95659113919167   -1.07709451020865
O          -3.03424711569299    0.40879330919275   -0.81362611302963
H          -2.63818996668861    0.78073301973971   -1.67091178773641
H          -0.27613148338420   -1.48371761966583   -0.71000510143063
O           2.54508171648602   -0.00357272560577   -0.43650138829272
H           2.22057579486119    0.36567372227781    0.43839585085810
H           3.50153593144442   -0.03108580022737   -0.39364226542557
O           0.89998429610913   -2.09176661374171   -0.10020899622971
H           0.69179459319175   -2.03716755438249    0.85620857488326
H           1.58928585887366   -1.41567255513740   -0.28351023093936
O          -1.85064561951768    1.39523668073459   -2.85038198819957
H          -0.89574640464799    1.37115489693174   -2.59290225935190
H          -2.07107206646882    2.32402699710896   -2.95546721159390
O          -0.12184436087009   -1.79792886030851    2.38416372385239
H          -0.94860522240538   -1.42559578880581    2.00742054383071
H          -0.38025431271724   -2.61421536604280    2.81756369704146
O           0.53992506127736    1.57942414393433   -1.73219650844368
H           0.05699922666124    1.50640501725231   -0.88832585110886
H           1.29586036052069    0.98592218978613   -1.63342448367867
N           1.45880746184472    0.74268904872246    1.85801482811553
H           0.55872178566209    1.01823016401949    1.46707155842844
H           1.76835578842300    1.48726348589837    2.46995573475638
H           1.27355459566148   -0.07434799165630    2.43037861124398
