    26
        -50.45695812  Gyration_radius:  2.43962882705 Dipole_moment: 1.632
 S          -0.22519578652286    1.05916111701957   -0.88052566269138
O          -1.45962753459749    1.73136967422375   -0.60135059243238
O          -0.37884457218968   -0.24882536071327   -1.48134066287926
O           0.58067832614184    0.90606282322805    0.42640762943729
O           0.67856711940361    1.91978275205047   -1.73804460173266
H           1.41707978170214    1.26420018616498   -2.08563870946520
H           0.00633718403633    0.39581561917053    1.14110609264706
O          -2.24230505363343    2.09348184434661    1.95337555229375
H          -2.00823320630571    2.97412273674655    2.24981237909625
H          -2.06460804522492    2.06911736268020    0.99398193047514
O          -0.96264535002629   -0.25075116657284    2.02056014078805
H          -1.58603376336476   -0.68670553845778    1.39055074831649
H          -1.44999188379367    0.54194494643143    2.32562068546489
O          -2.51092871015781   -0.95781930004477   -0.01773314351496
H          -3.13701190714981   -0.23545232860218   -0.11187496219607
H          -1.83576536944740   -0.81240264248080   -0.70391875318357
O           2.99946564232341   -0.56831836679960   -0.01235909637372
H           2.37020743305199   -1.31795830258306    0.13702312732912
H           2.62756538412942    0.16582851937948    0.48566939677808
O           2.25435262683556    0.11228732020530   -2.41526844070922
H           1.56889040102604   -0.54617857865242   -2.57295411378831
H           2.69213208977671   -0.15174661488266   -1.55189138068637
N           0.92480295015753   -2.27000352637371    0.25924258266191
H           0.34612149539348   -1.78895856491878   -0.42375445003445
H           0.49298515136839   -2.13879243028024    1.16620588789460
H           0.90200560708963   -3.25926222026335    0.04709841649729
