    26
        -50.45652776  Gyration_radius:  2.46378211397 Dipole_moment: 4.630
 S           1.68543321566204   -0.81452592481874   -0.08927084849154
O           1.68026522030481    0.63617678331306   -0.21041939722744
O           2.56090895553176   -1.49893723576905   -0.97351755134990
O           0.24238690643341   -1.31582547145006   -0.32278608966758
O           1.98733491078480   -1.19149977120437    1.35597307794030
H           1.32154631830975   -0.70430614261485    1.99207186289054
H          -0.48304106491200   -0.58408555149248   -0.32134140602327
O           1.53809217634247    0.25612958642186   -2.86929551424094
H           1.93271631130267   -0.61683768704392   -2.76272978933344
H           1.73166587536669    0.69722797652998   -2.02917954742824
O          -1.08781421662802    0.85007580049404   -2.96697658375931
H          -0.12295295573942    0.67633648874060   -3.02142734838703
H          -1.50206242314458    0.25322676868851   -3.59183350874466
O          -1.55169270497048    0.46943290438719   -0.39267703950269
H          -1.18556244038056    1.22824833049606    0.09367327924013
H          -1.49136358517404    0.69345582638020   -1.35389318929154
O           0.02050030739905    2.16894283669506    1.06814204665103
H           0.72746885346510    1.68492757189780    0.57672627930677
H           0.28847463408143    3.08837009330577    1.10119299288293
O           0.26005420519370   -0.01423604477872    2.74793884178051
H          -0.55939126409777   -0.54798679836869    2.55291289287805
H           0.11481016252100    0.85749120794155    2.34326782921478
N          -1.84817239616001   -1.43072964242845    1.91768247188564
H          -2.27765737361625   -0.83608476748746    1.21743302750436
H          -2.57606477766816   -1.80648275842520    2.51145316733075
H          -1.40588283011720   -2.19850438939554    1.42688004388722
