    26
        -50.47771704  Gyration_radius:  2.36997677335 Dipole_moment: 4.701
 S           1.14093621899344   -0.56400740964025    0.73767111577718
O           1.22151467913614    0.71804855039979    0.02475978474339
O          -0.20929442921322   -0.76218452965381    1.26985308652475
O           1.55417116877970   -1.65530523631699   -0.11552009233652
O           2.11962285439459   -0.48103453763279    1.93970565238404
O          -0.12704542015349    2.75461218415838    0.90190983372348
H           0.30075113267684    3.57685565092100    0.65953743610587
H           0.43543073129888    2.02932037367177    0.53287138536133
O          -1.91654041568402    0.78999208521412   -0.01661758216334
H          -1.37537212097626    0.18976071057780    0.54329178787141
H          -1.56604111681196    1.67168174570820    0.17435749613683
O          -0.78070019026829   -2.75237859904902   -0.59547817289669
H           0.16756245700321   -2.52302588479859   -0.46016992477065
H          -1.18130210133739   -2.54057285058572    0.25443018662065
O           1.29647030547844   -0.12457449192737   -2.44888297924640
H           1.74514949859402   -0.95964960147655   -2.27706956004081
H           1.36609748451619    0.34528931435199   -1.58685030726208
O           0.38486331025208    1.11110739998823    3.09888324755313
H          -0.18432129230602    0.41124630942654    2.74461929863215
H           1.67925528252002    0.16728348590656    2.53694517399335
H           0.18819625140220    1.89261408844447    2.55580539754090
N          -1.27275984360771   -0.65430758387819   -2.12544581458254
H          -1.61049575778019    0.04538301961788   -1.40243647267976
H          -0.28300229627104   -0.39376242337018   -2.41042306902500
H          -1.19451667213310   -1.58399832400044   -1.61463450915167
H          -1.89862972856732   -0.70839341604322   -2.92111238881114
