    26
        -50.47327815  Gyration_radius:  2.37197789982 Dipole_moment: 7.401
 S           0.02158852750925   -1.43762248657269   -0.43398037134399
O           0.55201980103076   -2.17809865529109    0.69927212142392
O           0.82928291093597   -0.22169313299333   -0.67179594438741
O          -1.37435856528695   -1.07311300717045   -0.23535538584983
O           0.15137095468726   -2.32332677958955   -1.68368975827642
H           0.07900881913878   -1.67468200511296   -2.44736105448245
H          -1.78183451628342   -0.02904153673512    1.06191029556832
O          -1.64102067976305    0.68405122756398    1.72192464495777
H          -1.33043672475677    1.43273272354538    1.17916931319810
H          -0.40823310720873    0.06120296166137    2.42761486363013
O           0.05230217017393   -0.36567349710638   -3.33531905718637
H           0.73134280507147    0.10418876061840   -2.83986977000801
H          -0.80134856728337    0.06651295094390   -3.08210316341475
O          -2.01552406333665    0.72573803370991   -2.09569063353321
H          -1.97644040699317    0.01409323092867   -1.42637446491371
H          -1.72327503868268    1.52068520462473   -1.63487340348787
O           2.45080728231554    0.63367985684392    1.21672845306572
H           3.29825713660133    0.19415236689066    1.13196798442395
H           1.90980077122808    0.32182409090981    0.45194337125234
O          -0.33067715540999    2.10352984057481   -0.19239062744934
H           0.09205791432237    1.24345941218814   -0.41935138127581
H           0.38723910294987    2.71022731551215   -0.00431120676519
N           0.48967219076822   -0.48825457911918    2.65110587497342
H           1.32088474512608    0.08008484269647    2.37901838232386
H           0.49218708818410   -1.30948151820343    1.96510572299505
H           0.52532659556766   -0.79517561069540    3.61670518504947
