    26
        -50.44638981  Gyration_radius:  2.4910908679 Dipole_moment: 1.306
 S          -0.40995316910774    0.43014533744668    1.42484538033739
O           0.68925600562067    1.29109309650932    1.04484347395315
O          -0.30372647523285   -0.11723279876621    2.73836896289244
O          -0.50123927214604   -0.71265427756397    0.37419142376089
O          -1.72197271525287    1.17183070376754    1.22518255482165
H          -2.35542776094994    0.63745445104689    0.56916340677267
H           0.43000148138699   -0.90994609083113    0.07493866986854
O           0.92530043800900   -0.95423622756207   -2.62299646759176
H           1.42534723276821   -0.37243980747611   -3.19879838581614
H           1.42993381580167   -1.03025540070227   -1.80062005012483
O           2.04264608693109   -0.78370128915356   -0.05139216651235
H           2.22512655745780   -1.26244337040392    0.80645372549620
H           2.00006608744955    0.15215696855837    0.19629350752086
O          -1.48655335819551    0.37122738144864   -2.35725434639715
H          -1.04637849049252    1.18218272415941   -2.03532606682642
H          -0.76947111806897   -0.27813909687104   -2.46609436278440
O          -3.15772960447652    0.00677163425783   -0.43556095940153
H          -2.51916667580728    0.02026556175841   -1.22070644347182
H          -3.89280114530615    0.57627065478473   -0.67676397887478
O          -0.26792099888282    2.47580024944849   -1.13551564069251
H           0.16377988933868    2.09834419179265   -0.34454667884260
H          -0.82556933520249    3.18621637685829   -0.81452941378175
N           2.05308934578264   -1.74635479860849    2.41171760970579
H           2.80441519773022   -1.49999668094506    3.04452271239273
H           1.83798269823037   -2.72466165930307    2.56079655774210
H           1.23096528261502   -1.20769782365260    2.68878694585410
