    26
        -50.45256376  Gyration_radius:  2.52905608332 Dipole_moment: 1.463
 S           0.04892824869111    0.00247208219331   -1.18274452552208
O          -0.86576805814035   -0.59253429737890   -2.11547702354156
O           1.22650416707410   -0.78905793261238   -0.92456970440040
O          -0.67205353065522    0.29060675779015    0.14124320514864
O           0.49564379014553    1.38314622913488   -1.64685264137959
H          -0.12547574394773    2.11828401353908   -1.27443283546986
H          -1.01022327345896   -0.61209980964354    0.59140383068199
O          -2.12255767173001   -2.77097875732734   -1.29153943279403
H          -3.01681529475337   -2.73722434665794   -1.63583028975943
H          -1.64063804728044   -2.03010126089353   -1.71822607697285
O           1.05756212607393   -2.89019141621733    0.71722332952386
H           1.26402544692068   -2.14437783505558    0.11943226377242
H           1.02658264395024   -3.67224047025317    0.16216043642566
O          -0.00983274600041    2.53402665009582    1.74727098179819
H           0.84610166313972    2.09701212639405    1.49294073345441
H          -0.60728999216070    1.80719775652395    1.94131201079510
O          -1.37344399875956   -1.89155632953713    1.09681251522949
H          -0.49823545628503   -2.33840433205449    1.18309211369115
H          -1.79776310956291   -2.32112123802587    0.31760420841015
O          -0.85159873834133    3.23024253498372   -0.60942365088052
H          -0.42984827241722    4.06354468405265   -0.83184873907312
H          -0.60109187168569    3.03069830771092    0.34378695346628
N           2.20194789966846    1.21099347242167    0.94163226438676
H           2.66398422245619    0.70438101676511    1.68745054592755
H           2.89948486053894    1.79055843765151    0.49117354203853
H           1.89187072652367    0.52672395638716    0.25640598504580
