    26
        -50.44619327  Gyration_radius:  2.63072660889 Dipole_moment: 5.432
 S          -0.19387151688611   -0.99938835542165   -0.79197165971239
O           0.63800767630069   -2.13351255218149   -1.06765167933324
O          -1.25820727003700   -0.76476935835853   -1.72565384041150
O           0.69106367918350    0.27979618242838   -0.72822192638092
O          -0.78206679003536   -1.08508541483056    0.60857020659660
H          -0.03304946918130   -1.11095839091477    1.34464421672686
H           0.79822334397580    0.55166395782834   -1.70800729834705
O           0.89064468997248   -1.08257937796844    2.45245494099805
H           0.60977736924348   -1.74478641556160    3.08788636909203
H           0.68799252619618   -0.16292306146998    2.86676271957333
O          -0.62026976662402    2.19989924378644    0.91597509137183
H           0.02869383300181    1.74502381271008    0.36701939999887
H          -1.48485244118989    1.90274968422336    0.57602935622474
O           1.78848099491710   -1.80318668841837   -3.44690184090586
H           1.35539023307687   -2.08800043803526   -2.61630652907219
H           2.72591854050235   -1.97054997151192   -3.33176853077689
O          -2.75832147079377    0.87769032843956   -0.18586646392570
H          -3.08569286500600    0.26109255350557    0.47187550352493
H          -2.31392179857674    0.32919847399312   -0.85523428833969
O           0.69320504194377    0.60139187857699   -3.23014383865664
H          -0.24375699789264    0.39679118358339   -3.33044512221650
H           1.17272576711284   -0.21732638497829   -3.50088412168350
N           0.25286815225065    1.24344312186179    3.41413698201609
H           1.03039256156034    1.80996828840841    3.72844004004877
H          -0.46853427453993    1.28292130022115    4.12310559854185
H          -0.12083973848649    1.68143641003698    2.56215672505453
