    26
        -50.44727645  Gyration_radius:  2.47227214315 Dipole_moment: 4.308
 S          -0.94019784506178    0.93006414561349   -0.34005222416333
O          -1.13996148617931    0.33418122069190   -1.63150427311165
O          -0.94519230309492    2.36413739703156   -0.33969529519933
O           0.41130602715788    0.43203268298849    0.25674687416053
O          -1.94964485311994    0.35136745347003    0.63230661960373
H          -1.63085158480729    0.46521226817226    1.64388371027193
H           1.13118274536175    0.56970284987629   -0.42171497256074
O           2.11753823801961    0.92780834661576   -1.62423559997962
H           2.86344970975354    1.46665354350259   -1.35183719605068
H           1.51796488431455    1.52912995941734   -2.14688341565427
O           0.67320722016237   -1.63068349555903   -2.04233906492404
H           1.48256664788790   -1.11192328521841   -2.03566479206097
H          -0.04921026460751   -0.98402503766399   -2.10894382984871
O          -0.77929407254777   -2.29564807359717    0.21979993187162
H          -0.20037251730116   -2.28402487635548   -0.56310277226691
H          -1.39938747705847   -1.57124443252992    0.09735943924406
O          -1.19961018635783    0.42063666090207    2.99011790874858
H          -1.92700248228036    0.05055586120505    3.49661440282417
H          -0.48279963233314   -0.32189638597650    2.91603516107466
O           0.31262896054199    2.49575410638015   -2.68783551544250
H          -0.16293233519015    2.70262427228076   -1.85940800942556
H          -0.29043419301932    1.93068606295571   -3.18019277435048
N           0.48724145120753   -1.50213329714000    2.63070470518276
H           0.07022977903935   -1.91439707893273    1.78843679862696
H           0.64894437940865   -2.24121085771077    3.30270680345924
H           1.38063118010390   -1.11336000042288    2.35869739994116
