    26
        -50.47771716  Gyration_radius:  2.36996681085 Dipole_moment: 4.706
 S           1.23029241239209   -0.57808756568846   -0.56500943079750
O          -0.06305959294885   -1.03915094588513   -1.07492001353564
O           1.71189083287118   -1.40310065926157    0.51996103621093
O           2.25455747074995   -0.64924017225196   -1.72923610051934
O           1.14030625760527    0.82927647938293   -0.15322754286049
O          -1.98817578305312    0.54972069609554   -0.21002729741760
H          -1.72269554139976    1.40285880909739   -0.58228965784390
H          -1.35924162978138   -0.09250053149367   -0.60844419086839
O           1.17682718913925    0.56047168940277    2.44697089337417
H           1.71896174132102   -0.23536260954616    2.47730874665291
H           1.24049689998174    0.83572136855632    1.50417476981868
O          -0.51554777736415   -2.62750150681279    1.17113142224859
H           0.40874562419754   -2.32627995740899    1.01243181424449
H          -0.89308163486650   -2.65416397700630    0.28552449109370
O          -0.37240985155831    2.45982633205216   -1.49051065552666
H           0.24531784311946    1.90066536889289   -0.95727074593513
H          -0.04902445281853    3.35896925794173   -1.42141497185262
O           0.42333284166077    0.44857729370923   -3.25620808121863
H           1.78042927920723   -0.19929677862740   -2.46645554700863
H          -0.08618301223145   -0.21738968072749   -2.77026081905914
H           0.11815688057879    1.30193919008638   -2.90572260407615
N          -1.30276350574847   -0.31632203025696    2.18296668638494
H          -1.95854173112865   -0.26638937729602    2.95445772456644
H          -0.36165694702089    0.11130146304032    2.42813872059271
H          -1.10120212474537   -1.31993273438545    1.89411152356266
H          -1.67573168816181    0.16539059837958    1.31381981978112
