    26
        -50.46485786  Gyration_radius:  2.56495247905 Dipole_moment: 4.108
 S           0.28128261287196   -0.18605238285663    0.86110535198045
O           1.32019244589119    0.67904643860647    0.31170627176194
O           0.85274350213599   -1.35074002108748    1.52568110789512
O          -0.50071833462074    0.62396100511531    1.92703111668724
O          -0.66248690998391   -0.58809448778463   -0.18620209251724
O          -1.35046764941268    3.50746580660638   -0.51092779918379
H          -1.71067416104026    4.37900192818088   -0.34057568395225
H          -0.52144708311238    3.44280686860893    0.01909382225992
O          -1.06204592176325   -3.10527844946660   -0.84030785379807
H          -1.65830021377978   -3.47419576328771   -0.18681494236733
H          -1.01979617521373   -2.13784214106129   -0.64921361946959
O           0.72692961637078    3.13094023932037    1.12834418238946
H           1.08567244629040    2.29227267669144    0.77108733459628
H           0.38445182151415    2.89945494476252    1.99570990446033
O           1.74281968410952   -0.62262867448844   -1.91229405879892
H           0.89670082887796   -0.49745535909385   -2.35017038509198
H           1.70727546598294   -0.02718612742360   -1.12567525571901
H           1.75942367604549   -2.04720134466379   -1.16288371117242
O          -2.45959430996881    1.28179255454047    0.45405767584712
H          -2.17290695191394    2.12907692958927    0.03983487662205
H          -2.11889375570066    0.57859950239464   -0.12061619430262
H          -1.34963682407461    0.93752200398851    1.46605536619911
N           1.54755049798175   -2.81715469982446   -0.46367676261394
H           2.28765433574117   -3.50684609144763   -0.39929681838205
H           0.61751727530169   -3.22694343951605   -0.71202150955588
H           1.37675405148761   -2.29432189641711    0.46096968621456
