    26
        -50.45497409  Gyration_radius:  2.45949846228 Dipole_moment: 5.125
 S          -1.62253881332081    0.23459860748182    0.82769191782634
O          -1.61002555312350    0.10066107677603    2.24716334278264
O          -0.93346739309981   -0.85613248586457    0.14610220852992
O          -1.03132711904176    1.55240449099645    0.35406060253688
O          -3.06329509379092    0.30134203286673    0.31259055116630
H          -3.01121113032435    0.62903084151087   -0.64242919425294
H           0.02890335560047    1.65072311986306    0.51862856416118
O          -2.80386830434721    0.99314396465956   -2.14415272463087
H          -3.36547677098691    0.45074272895446   -2.70286856975160
H          -1.87455959912871    0.71864392971849   -2.33665872655219
O           2.25780548336167    0.01999101450444   -1.29014330422439
H           2.02117382766633   -0.80176647175378   -0.80112344578223
H           3.19960298222216   -0.01946133016743   -1.46187640567119
O          -0.42048645297637   -0.13255346453906   -2.35436410145926
H           0.47418244755635    0.22286331462579   -2.30263825428643
H          -0.59625380581915   -0.50472071959291   -1.46728289634361
O           1.39327366872926   -2.10189279915516    0.11291628990673
H           1.23710062232900   -2.91193878121053   -0.37638950935095
H           0.51018473602521   -1.68954140419073    0.23130416065155
O           1.40891996759547    1.63035424445474    0.71962705800118
H           1.47161393297235    0.98531563162289    1.48958905897140
H           1.76293365326419    1.15890653865522   -0.06264001674113
N           1.23446756351815   -0.20698948722240    2.58785170994656
H           0.21739084227179   -0.18952662819376    2.65257470942717
H           1.60874759697266   -0.12386124797770    3.52421942975440
H           1.50620934585894   -1.11033674682308    2.21824754541228
