    26
        -50.45130322  Gyration_radius:  2.46771180804 Dipole_moment: 0.979
 S          -1.14071858382518   -0.64727803327607   -0.74495955105817
O          -1.02225966629564    0.29308603167829    0.34966769463353
O          -2.39734537333161   -1.33295699581236   -0.76380238391014
O           0.02677712127051   -1.66006437442802   -0.65564080271112
O          -0.88018474384883    0.04444803882363   -2.06300796966710
H           0.16918623083617    0.09292293937711   -2.23894842253227
H           0.08637805990084   -2.03863048895032    0.26879487200389
O          -0.03219785933747   -2.55832861586701    1.76399472267338
H          -0.06514618341218   -3.51628637267779    1.80973149030213
H          -0.95192951260824   -2.23420165891957    1.96451768474208
O           1.55993538886684    0.21081897878342   -2.46064253267585
H           1.95852369901985    0.66763270348165   -1.63576697100927
H           1.71694800953711    0.80496443964809   -3.19829795954072
O           2.37916529489933    1.49484987242704   -0.41712365639711
H           2.23769438606448    0.95074806466530    0.37928158242344
H           1.64908620490696    2.15553381384017   -0.40010817068502
O          -2.46183457630676   -1.58686222139390    1.89399881903725
H          -2.36821827348928   -0.65489575893721    2.11148210285284
H          -2.66170909806358   -1.60159045499787    0.93778906100225
O           1.34113717463128    0.05400783849344    1.65831127315528
H           1.33926146721671   -0.87073478509029    1.91914878002730
H           0.46011887280318    0.22325749300182    1.28362091904363
N           0.03581794116418    2.87789007771135   -0.47025758979726
H          -0.46757380759319    2.05143523150199   -0.15275296914277
H          -0.38320499878282    3.16708528733008   -1.34530282629438
H          -0.12770719427959    3.61314895958546    0.20627282354548
