    26
        -50.46387055  Gyration_radius:  2.40659235004 Dipole_moment: 7.320
 S           0.44507823693079    1.34151136676388    1.05355366776698
O           1.55468847870687    2.11008383471808    0.56828432589081
O           0.76461926335286   -0.09580521612420    1.12353082784591
O          -0.76904170583981    1.46561744515028    0.07096129128474
O          -0.13199128414798    1.78860102524839    2.32270503658207
H          -1.42425188776085    1.22082864689780    2.24657451136094
H          -0.52329910660741    1.22671870289392   -0.89355151471965
O           2.09894808210414   -1.57520918076436   -0.50640611867129
H           1.65871458264276   -0.97223199960132    0.15036355560178
H           2.61061595867369   -2.19784782551353    0.01184897225052
O          -0.16920759624222    0.70993999856990   -2.26584020023484
H           0.81049032777173    0.86058717852925   -2.25458638696234
H          -0.30029543458150   -0.25043579049435   -2.17564572427068
O          -0.31701596314019   -1.98184034051762   -1.64670049210699
H          -0.27615051832506   -2.62989957790483   -2.35128382558184
H           0.58338617345265   -1.93286973975593   -1.25658974167137
O          -1.43833049198601   -1.44366423125110    0.93535411674995
H          -1.43853348417138   -1.65356843570057   -0.00819745666697
H          -0.54545533249780   -1.04498738637328    1.08748704086956
O           2.39034485970115    0.97930591274273   -1.71562090172329
H           2.22988600776917    1.50606111809057   -0.90663163302023
H           2.60661939626028    0.08758827304501   -1.41345817369274
N          -2.40926603368660    0.73666918783934    2.03010892305194
H          -2.16397107692889   -0.19230122635284    1.56228882943530
H          -2.88599351453157    1.33331209417283    1.35942996406135
H          -2.96058791691851    0.60383616569175    2.87202111657267
