    26
        -50.45932467  Gyration_radius:  2.43961741657 Dipole_moment: 7.815
 S          -0.76489097487830   -0.29986477676441    0.39455665605440
O           0.09745715597895    0.56205870317981   -0.42415189734480
O          -1.12993003411975   -1.54104967863258   -0.41024485145787
O          -0.05050285995557   -0.69186654011808    1.61698379497929
O          -2.00802096092665    0.38918680785164    0.72833915277181
O           2.16228891882849   -1.92297757390799    0.83620144741128
H           1.38990427380113   -1.41425961693277    1.16457203696394
H           2.28081038721381   -2.65212749741580    1.44780714226841
O          -1.61130191313036    0.37151893177256   -2.56921307348600
H          -1.13261452029605    0.58201979641608   -1.75469679645125
H          -2.21366443525093   -0.33684697201216   -2.33289536701092
O           1.15078921758795   -0.24366100303199   -2.83966831038031
H           0.29245912756654   -0.09983216076862   -3.26267952080709
H           1.07156978095929    0.21531510763214   -1.98884676242627
O           0.58612993030169    2.79327139222165    0.87575791676447
H           0.31523277196825    3.50104429749036    0.28773497743027
H           0.52770217407515    1.96442535740820    0.34109671875248
O           0.91641723644563   -2.48567786077917   -1.45716576425494
H           1.55214567957875   -2.36317746280347   -0.71700855473852
H          -0.28005780739477   -2.00245519004926   -0.86764727430596
H           1.11994154075441   -1.77055728669973   -2.11232404266218
N          -0.86302063190052    1.52609249671544    2.66764944425022
H          -1.20753677543929    1.82485549342446    3.57349463279145
H          -0.27731149060325    2.24241795600989    2.16264974607817
H          -0.31075765650032    0.63801782147565    2.68328394889510
H          -1.61323814466285    1.21412943831735    1.95641459991441
