    26
        -50.46300504  Gyration_radius:  2.42099956201 Dipole_moment: 5.802
 S          -0.96299636279354    0.96943342971558    0.52828540354256
O          -1.69537889599484    0.39512938383334    1.62584232819402
O          -0.91295045439229    0.07554574284999   -0.63441836240244
O           0.52967225383813    1.18877812197287    0.96103582173868
O          -1.39566374866946    2.31012321680752    0.13856778645779
H          -0.25555856998128    2.80293860692955   -0.53437090281464
H           0.91787910640358    0.30860631978532    1.30546149582600
O           1.17371712843694   -1.58156911850317   -0.98719236925070
H           0.72420058411999   -2.43584830146417   -1.04993351150505
H           0.43059132713901   -0.95690916544941   -0.86385449217282
O          -1.26593593097260   -2.78292057495788   -0.42658542770849
H          -1.24658974737535   -2.80461486757428    0.53963276803885
H          -1.51196040145621   -1.87686141754487   -0.64959963053015
O           0.60744058434131    0.91927820365392   -2.60981503269605
H           1.26674898356930    0.21772484419824   -2.56773188699873
H          -0.13140464218825    0.59675708712635   -2.04424854531030
O          -1.00461503978594   -2.02513360263998    2.28062102150005
H          -1.34615375203894   -1.12537846489440    2.04784834008957
H          -1.36530417491629   -2.23146187617364    3.14410925508651
O           1.45220375710820   -1.07791238756455    1.63149002518383
H           0.67662176248955   -1.56051363343031    1.97844022318938
H           1.58239249225464   -1.40619249981236    0.71495551082378
N           0.72432569495869    3.01098611595691   -1.02775284333690
H           1.42899136160449    2.87290115067589   -0.30601737483360
H           0.76487791173472    3.94422604194511   -1.42482391335191
H           0.81484877256579    2.25288765455993   -1.76994565676023
