    26
        -50.44788703  Gyration_radius:  2.59207039176 Dipole_moment: 6.578
 S           0.03059766232448   -0.22414908852002    1.32986080889803
O           0.47975479552810    1.12634097256237    1.10679372550111
O           0.73705335337099   -1.24600007840931    0.61075815170480
O          -1.45936719118103   -0.29192750025043    0.99420961657699
O           0.10420504316916   -0.53667122112923    2.83358504747666
H          -0.36249150890789    0.26025913022749    3.27347078014749
H          -1.62175170686117   -1.11371058481756    0.32590422896552
O          -1.20966341208395   -0.58664476079066   -2.64056755052370
H          -1.27932958427123    0.30079988419578   -2.26949170427938
H          -0.27152039702273   -0.63789829246257   -2.93211890371150
O          -1.54230393814077   -2.15976289765447   -0.61837944115273
H          -0.63244694182948   -2.42782666211380   -0.43712377726955
H          -1.50232938342161   -1.63453910965710   -1.47872229047944
O           2.94180840401319   -1.17148915528532   -0.96252317251064
H           3.26981197745397   -2.07225541841670   -0.96374037349071
H           2.20369976573341   -1.14894559279725   -0.32905186282806
O          -0.03567386701855    1.77217336521818   -1.44660271244218
H           0.09095099596798    2.71932334230059   -1.52358358613902
H           0.18602149770716    1.54018744364023   -0.52458662021532
O           1.40190397054074   -0.14540239683395   -2.99270066907025
H           1.15107450055392    0.69242849000744   -2.58000284807734
H           2.04343295586984   -0.54647331189705   -2.38015010222756
N          -1.08237783658795    1.64980276922113    3.44841746359680
H          -0.94255590568468    2.24041090967416    4.25755066561156
H          -2.07291012949909    1.57822299551282    3.25703846001911
H          -0.62559309974565    2.06374677847376    2.64175667597835
