    26
        -50.46062568  Gyration_radius:  2.46698950652 Dipole_moment: 1.854
 S           0.27082139955914   -1.32201631336259    0.31162724275118
O           1.01373125164912   -1.47348839879652   -0.94665245638404
O          -1.14308874795637   -1.07155652420254    0.05591137027299
O           0.85613706727740   -0.26763098328095    1.12659343637888
O           0.36244683468709   -2.66260128961370    1.07994852992666
H           1.34614895381045   -2.74513569112794    1.22554036941453
H           0.93494361558186    1.21631360110941    0.41677078038880
O          -1.81349052263031    2.51372945021304   -0.04363318529908
H          -2.15553176537212    3.36107821604609    0.24397647005808
H          -2.05427376839965    1.85572716952802    0.65770474722122
O           0.70571313442973    0.60254125940000   -2.27823981693301
H           0.91546997808848   -0.32083741790022   -1.82363463203935
H          -0.33175945032887    0.59320427535309   -2.35385778886283
O          -1.79613187496348    0.52051848971340   -1.97233517976596
H          -1.97798101437320    1.33101735381616   -1.46818558865179
H          -1.71616447130314   -0.18902935046150   -1.29782899962314
O          -2.40663714766680    0.58737387147420    1.65589431810475
H          -3.28996440651098    0.21699841667330    1.70698554169973
H          -1.86297264458859   -0.08581456510714    1.18690052360075
O           0.86185138281831    1.98345097140474   -0.20344835158255
H           0.88100339637017    1.28960275332604   -1.48655500718828
H          -0.05303498538816    2.31368137759281   -0.10068390377225
N           2.92096931513415   -2.23178901884304    1.14263713495795
H           2.66613155692565   -1.28017356101148    1.38884575747467
H           3.09568919072069   -2.24695511511812    0.14530388837214
H           3.76997371242390   -2.48820898685704    1.63041482948008
