    26
        -50.45551871  Gyration_radius:  2.50659135012 Dipole_moment: 3.191
 S           0.72217957460758   -0.08651658839758    1.14143588893298
O           1.57516930902539    1.04838435285538    1.28453579429694
O           1.14307933228091   -1.01400601364999    0.10427031077341
O          -0.71868558098294    0.34902283729121    0.83254847109322
O           0.59880821596885   -0.82222019833202    2.46691058461163
H          -0.15168949275921   -1.52164431251360    2.39192131068407
H          -0.73213243864165    1.13701480168094    0.12125414844553
O          -0.57859475523810   -3.06242430911781   -0.25209790673190
H          -1.23063914568328   -2.55348823855243   -0.77822896546450
H           0.20284033864971   -2.48316575167145   -0.20943577552272
O          -0.66295233647514    2.09686480315272   -0.93345119813646
H          -0.27580587075786    1.56653443165793   -1.64829888163557
H           0.04437270124015    2.74896974877091   -0.64784950987783
O           0.49159316143679   -0.00496082686793   -2.23828498080728
H           1.03015564739821   -0.36973465709926   -2.94240709636734
H           0.82437781337540   -0.39690363492606   -1.39927407890909
O          -1.16914656503506   -2.60223839291839    2.21513952875224
H          -0.93596162028671   -3.36685730295406    2.74607924263000
H          -1.04015268881840   -2.87198921483255    1.25294022608465
O          -1.99012678250857   -1.08596856048259   -1.42619747618690
H          -1.26785828878849   -0.66140294768912   -1.91325148825501
H          -2.11830436289733   -0.55815884075181   -0.63163904779815
N           1.34275998798455    3.56311974430060   -0.03565567258311
H           2.12335265686960    3.82579505355401   -0.62378225176922
H           1.63796012614307    2.78173363434520    0.54954857665174
H           1.13540106379604    4.34424037327613    0.57327024722382
