    26
        -50.46240753  Gyration_radius:  2.50061096637 Dipole_moment: 4.407
 S           1.28545091074421   -0.10344932772282    1.25734601166996
O           2.31402337179399   -0.66720680745338    0.43472652985942
O           0.11075644789724   -0.99208988880740    1.36215428301273
O           0.83985783469080    1.22218564247915    0.82024027800553
O           1.84516676374012    0.04670992437498    2.70876529801706
H           1.11053074212076    0.48805684387365    3.17000177594271
H          -0.25195451696550    1.85512787113470   -0.34154670422152
O          -0.44931811539720   -2.74684475241723   -0.55393052593214
H          -0.14445606113707   -2.22885260937203    0.22203162359121
H          -0.06028805809533   -3.61777558158544   -0.46275578780451
O           1.25533582342625   -1.09977233555470   -1.99096392293474
H           0.61787674277786   -1.77259044661962   -1.70286448625331
H           1.78053280812170   -0.89300070839098   -1.19444419991704
O           0.09474811976816    0.97163096462073   -3.14598881156635
H           0.53399720237066    0.16987773164928   -2.76700612037661
H           0.79228882264441    1.47531345483330   -3.56714271388165
O          -0.28185975821796    1.61414505513865    3.13096709124786
H          -0.11910734498106    2.49430350328569    3.47703689403984
H           0.00062749232976    1.62804158489468    2.19080928834665
O          -1.01603800196515    1.90885874914961   -0.95207055485578
H          -0.65090904287959    1.67460997012390   -1.84231695763647
H          -1.67140072305726    0.67782788614422   -0.50213197654434
N          -1.95698311597646   -0.29419611330847   -0.05479842609810
H          -1.17514970266280   -0.52411455977137    0.63535134195794
H          -1.95179209342933   -1.03827133210266   -0.75180711580670
H          -2.85193653766365   -0.24852470860374    0.42033788813852
