    26
        -50.46654150  Gyration_radius:  2.46907075285 Dipole_moment: 5.976
 S          -0.91368038928098   -0.01269335628844    0.68209807082853
O           0.37533876290341   -0.43003404423100    1.23844569779741
O          -1.35330893203700   -0.97514629873681   -0.33865633762098
O          -0.86117205463858    1.33566769109948    0.15604787309618
O          -1.97803819053647   -0.09943093244569    1.79686182601769
H          -1.72745321362364    0.56733098142058    2.49505646486981
H           0.34098403959711    1.35911301342046   -1.04628353735577
O           0.97676172641700    2.00282968140075    2.09966247212670
H           0.94277792596528    1.06259780601329    1.83141624783807
H           0.59384140833707    2.47373790417197    1.35159356224321
O          -1.06424113336803   -0.37372650618130   -2.92318400285342
H          -1.74878923580168    0.16178303555110   -3.32648499503067
H          -1.32911913776449   -0.49276510796309   -1.98603908805363
O           0.97398614727839    1.13185658660758   -1.75759964289384
H           2.05436640840425    0.01515384247058   -1.06000075071841
H           0.42588479089902    0.71155471269923   -2.43725681343440
O           2.28869112184204   -0.80093208135629   -0.55082831138450
H           1.78300125287404   -0.69385271628798    0.28379208581553
H           1.39411003127187   -1.77232363656712   -1.18302130104850
O          -1.12999645004823    1.55136663762510    3.60503632783935
H          -0.83088439132609    1.05843789216595    4.37201882815576
H          -0.31210144362277    1.87475729396486    3.14560057632116
N           0.50399222482000   -2.32750749823492   -1.54617128417926
H           0.29320042004428   -2.06470708988866   -2.50903651675465
H          -0.28769094049242   -1.93076034861818   -0.95020718988413
H           0.58953927187194   -3.33230744922559   -1.44286027341613
