    26
        -50.44688080  Gyration_radius:  2.58573761904 Dipole_moment: 4.171
 S          -1.28213975901172    0.21605539351206    1.06550139921803
O          -0.38267177038171    1.14054381811352    0.41280079114419
O          -1.11050542360073    0.11958362638457    2.47734870816542
O          -1.10180608463546   -1.18040271389566    0.39637497613505
O          -2.72615403266689    0.53904703479583    0.71868935555035
H          -2.89044360637496    0.22731815320633   -0.24757859111654
H          -0.13720241042743   -1.46046154841646    0.44618676918346
O          -1.16941550525166    0.52164437393325   -3.24831412422279
H          -0.30480277711656    0.30140754178489   -2.80453461917250
H          -1.20273695985538    1.47779922660298   -3.30711313762353
O           1.36090013164771   -1.90262575251752    0.55389650025148
H           1.90942213718064   -1.24206864332629    1.05806079230119
H           1.38759943906417   -2.70843161599752    1.07433690348750
O           2.79664140534069   -0.20546134212323    1.93953325719286
H           2.20447630456531    0.51912673212870    2.26949529000475
H           3.55110111739085    0.23117637124332    1.54105717340266
O          -2.98795473276756   -0.40672863207267   -1.60141508744053
H          -2.34753822956418   -0.02622388826771   -2.26484599584804
H          -2.68871723889981   -1.30520896495741   -1.43812890090879
O           1.10340551368570    1.71298515045746    2.57905315115594
H           0.43863612245956    1.28554737452162    3.13368586737261
H           0.66476961566034    1.76961027061013    1.71310861253261
N           1.05300767789435    0.09806328864811   -1.83060866841957
H           1.92157984511872    0.55651601930761   -2.07520692030637
H           1.27308271904787   -0.84922775677622   -1.54764240686992
H           0.66746649146951    0.57041647309208   -1.01374109517515
