    26
        -50.46557538  Gyration_radius:  2.40208222696 Dipole_moment: 5.462
 S          -0.69149281313782    0.67847624843571    1.28996450502308
O           0.76731896829572    0.61683505692118    1.44682788401495
O          -1.33178765513794   -0.51623718860856    1.76262765961031
O          -1.02407412566768    0.99759007682330   -0.10416846287588
O          -1.18994034346113    1.87249642601089    2.16318994604662
H          -0.77512941636169    2.64726483519978    1.74342105070759
H          -0.24435328900139    0.46095004589927   -1.53858519361873
O           1.01765238050079   -2.05034125657403    1.08989037466876
H           0.85434727520108   -1.13058785882998    1.36647537463853
H           0.42956601230847   -2.57492050751023    1.63805936303818
O          -0.18472720040045   -2.39391678226547   -1.38952452986840
H          -1.12065508770786   -2.25100605596398   -1.13262130581627
H           0.30290229263117   -2.41976275653677   -0.54787920275118
O           0.37027523427636    0.01878347379679   -2.16066652177774
H           0.13979492012962   -0.95164614142868   -2.07168805635852
H           1.57758753681641    0.05505404470110   -1.36946787808612
O          -2.52611045200648   -1.47412980941763   -0.42852039379918
H          -2.19571017173951   -1.22804694142660    0.45692739111262
H          -2.66117668881618   -0.63639013178777   -0.87798676863877
O          -0.18272146810155    3.44724846147152    0.25602478434858
H          -0.45905388587268    2.58220613803847   -0.11026556217101
H          -0.75456390781161    4.10883421964522   -0.13950420307600
N           2.33727691306698    0.04248144486427   -0.54842154730213
H           1.79473100325208    0.40208930495691    0.29223201739568
H           3.15015505337657    0.61684257424026   -0.74140080967412
H           2.59988891536529   -0.92016689066089   -0.34493989480800
