    26
        -50.46125504  Gyration_radius:  2.4279245011 Dipole_moment: 9.772
 S           0.55042373274614    0.61513729401574   -0.12416613639803
O          -0.09331900854997    1.37329853252556   -1.15895030733046
O           0.26945718483806   -0.82579077021356   -0.19713262905086
O          -0.01180450511581    1.07749683149682    1.26469200692559
O           1.99214604024291    0.84332871304798   -0.01650221219545
H           2.30899295340948    0.50291464985322    1.33012031680502
H          -1.00254552192627    1.24472081929022    1.08488623585615
O           0.56680975001848   -1.69346048666444    2.23254467246762
H           0.44887530389617   -1.51699750436706    1.26500536202860
H          -0.29536920361845   -1.54045271259600    2.62650481174306
O          -1.66383627601614    0.11704576636288   -3.01790325137749
H          -0.97429819439013   -0.47641322984877   -3.34825931917475
H          -1.17249287527742    0.76037876263113   -2.48098850529420
O          -2.40077009144120   -0.93719914957596   -0.65638966959480
H          -2.40013182768519   -0.66611030732478   -1.60021533331898
H          -1.46456912971557   -1.11776231725216   -0.46992586473354
O          -2.41522457969613    1.37908105305891    0.53454162377438
H          -2.57558271745701    0.47283198225878    0.13757164339894
H          -2.28381864862172    1.96145712315105   -0.21978802106168
O           0.95822585836472   -0.90459282789922   -2.85055640883613
H           0.75329383500975   -1.04948772628871   -1.91530152081629
H           1.42941874924644   -0.07008143986263   -2.88826950429640
N           2.38381875427254    0.19207475546959    2.39422441492625
H           3.32510961849310   -0.10828188633862    2.62858231877004
H           1.67856024262261   -0.60802899191275    2.47503718600959
H           2.08863057674171    0.97489307768961    2.97063810085883
