    26
        -50.45514534  Gyration_radius:  2.45842702495 Dipole_moment: 1.647
 S           0.24694292056452    1.44792080282002    0.25982255458889
O          -0.52595109502926    0.57933272816943    1.12661160672445
O          -0.54206897167942    2.41469998154524   -0.44468461086025
O           1.01182372337338    0.56608461556098   -0.74904693609971
O           1.34754666662684    2.11434869372736    1.04633311238779
H           1.70839025920249    1.36537620193197    1.70338271227931
H           0.34723777761334    0.06739305704020   -1.36617698830917
O          -0.21798806296566   -2.13629040027900    0.98043456674887
H          -0.32054666330358   -1.17905392002097    1.10619606736015
H          -1.06268400380389   -2.44287861299367    0.64375783350618
O          -2.37579305857665    1.63517334055310   -2.19603911643883
H          -2.70563385101026    2.37390383843114   -2.70943920283913
H          -1.74497992363263    2.01396825313169   -1.54877378267130
O          -0.74258922779732   -0.55980104849688   -2.16380341615333
H          -1.19729568973602    0.17697764660969   -2.60404165371064
H          -1.39487785308838   -0.84764045043670   -1.48266641241942
O          -2.58622552158234   -0.52415116470474   -0.25556549921062
H          -2.01355954676898   -0.06918683776192    0.38637793803834
H          -3.03902255340647    0.17094547163433   -0.74667163902107
O           2.01533001823170    0.22250856804364    2.50246865136527
H           1.15095161342035   -0.07934704081372    2.79861569184014
H           2.34152672917319   -0.48335740279707    1.83947707601842
N           2.59358177977580   -1.54546130009697    0.68044430855373
H           1.73633462744168   -2.09310878641455    0.70376495927272
H           3.38349235095092   -2.17662370612172    0.66972529324915
H           2.58605757598766   -1.01173253823868   -0.18050313420927
