    26
        -50.46224001  Gyration_radius:  2.5476334116 Dipole_moment: 4.833
 S          -0.95876200942952    0.70266250014194   -0.10403771339979
O          -1.02359184566725    0.49877239462457    1.35371831700654
O          -1.89862946766520   -0.12921765473934   -0.82721478729328
O           0.41027509853238    0.53148896565680   -0.57736748216287
O          -1.34753103704644    2.19551136426466   -0.29472141412600
H          -1.41893201693848    2.36402932871296   -1.27454242759653
H           1.86850278237963    0.06463385435624    0.06657484729592
O           1.56006201988379   -2.73226971351447    0.94177568932067
H           1.71085244368941   -3.40207156566684    0.27333985430961
H           0.59102916115547   -2.55941573642659    0.93998455916586
O          -1.58103274550574    2.40669131202879   -2.87749015049298
H          -2.50992648902424    2.29247775791456   -3.09007042540578
H          -1.13472306604198    1.56150935992347   -3.13895168066461
O          -0.52364842673927   -0.00611508008422   -3.07617393659384
H          -1.17173766689286   -0.26378384909447   -2.39128046058494
H           0.28196340283402    0.13449848298635   -2.56236614572977
O          -1.04929088154737   -2.12099205118562    0.84517596716375
H          -1.13307489142002   -1.25327561745696    1.27459064057384
H          -1.47393468050763   -1.97273799559850   -0.00824531750914
O           2.54180780369617   -0.27593410963544    0.70101243404596
H           1.89906327031073    0.26325169942029    1.87688626690589
H           2.34397055141992   -1.23986565777983    0.76739815871038
N           1.19294840999396    0.65438063485485    2.65066711063140
H           0.23686264440602    0.65020754200658    2.14345306603080
H           1.43219710009849    1.59885135289360    2.93262185941384
H           1.15528053605326    0.03671251139130    3.45526318097592
