    26
        -50.45514527  Gyration_radius:  2.4584933038 Dipole_moment: 1.650
 S          -0.36594946489323   -1.42488848071228    0.24692297625620
O          -1.69002142253961   -1.72229435158467    0.70738256722706
O           0.40381151937695   -0.60608930023215    1.16349703763662
O          -0.43911223605152   -0.69243756905134   -1.10907305603089
O           0.39223749892827   -2.68727607267638   -0.07818055023228
H           1.40326361983246   -2.38415229830436   -0.17125341729981
H          -0.96422534521475    0.19405887663433   -1.01079336300494
O           2.68699958139070   -1.76089265091570   -0.22641224684173
H           2.62541382674309   -1.09739629910959   -1.00104178578617
H           2.70815403150911   -1.22550582273597    0.57285005253969
O           1.67413189818582    1.64407737175019    0.26227343027699
H           1.28711473256344    0.82673622020659    0.61557704594315
H           1.20744698215638    2.35910482353590    0.70013101748605
O          -1.74507626135208    1.42158499062460   -0.69349530700494
H          -1.34167918613980    1.74436012071301    0.14627431524910
H          -2.61828072502012    1.10528377464250   -0.40892296862541
O          -3.45514702222421    0.22389063409724    1.07411638681023
H          -2.86407989165009   -0.55385152331914    0.99572569575178
H          -4.33625120646097   -0.12493691820052    1.21581530482720
O          -1.01276858139784    1.60623803450777    1.85056264881968
H          -0.48497687575600    0.78886448883697    1.83107034540467
H          -1.90596956971791    1.33979998704427    2.09658851623361
N           2.30858222586566    0.04810100564838   -2.06075777247058
H           1.38037430642366   -0.15772801990831   -2.41038721640843
H           2.91395672829247    0.26433357017194   -2.84127970115487
H           2.23205081718316    0.87101541832990   -1.46718995559180
