    26
        -50.45621094  Gyration_radius:  2.46339017296 Dipole_moment: 3.891
 S           0.75748234663117    1.21448688508883    1.14606279588161
O           1.40486812957229    0.32540274226155    0.20727853085837
O           0.69970048243850    0.68750426263103    2.47823296455940
O          -0.64213812418153    1.56687477604125    0.63676627021003
O           1.45829424267820    2.57138484953287    1.13720150937752
H           1.26354083346680    2.95158442925192    0.21640465336588
H          -1.32318579097967    0.77396275761583    0.65529445788961
O          -2.14773413366147   -0.42850497461354    0.64180698988556
H          -1.99227223690507   -0.76198111163865   -0.26939806050815
H          -1.66147701678610   -1.02249484222819    1.25153111895553
O          -0.53562684245088   -1.66529527950987    2.42363195898990
H          -0.91552204956571   -1.79729359327332    3.29494003193446
H           0.01549769083610   -0.85586378597794    2.49578385733058
O           0.96507702816437    3.31308918748055   -1.25604625782275
H           0.59481916355342    2.49683311861567   -1.67512678729949
H           1.77860414620153    3.50565059904654   -1.72869487280881
O           0.40399593104496    0.90338188816912   -2.19228001861868
H           0.87497848197525    0.57875045652987   -1.40273371222020
H          -0.39524796302019    0.36244784350912   -2.23959719738290
O          -1.35340802415982   -1.31580938760863   -1.75874524639942
H          -1.80546768680184   -1.96543703770558   -2.29810369682025
H          -0.58914643039518   -1.78542105573683   -1.30860461161399
N           0.58287412678902   -2.38596603266408   -0.30746168000666
H           1.25788642817024   -3.08031696897697   -0.60226025335581
H           0.21638988234388   -2.67089621690742    0.59472536134126
H           1.08721737504427   -1.51607349890074   -0.14060809572453
