    26
        -50.45897852  Gyration_radius:  2.56341554079 Dipole_moment: 3.915
 S          -0.95077124205296   -0.32014221714734   -0.43413540494036
O           0.12427985185946    0.01489652626390   -1.38112425549915
O          -2.18662318695390    0.33909144735495   -0.75797164052109
O          -0.50531677412738   -0.03134158182518    0.94091822175509
O          -1.11720151448048   -1.85929901152619   -0.56269460702661
H          -1.35859615875228   -2.29627090746537    0.30336074028532
H           0.64639813595888    1.01709639013582    0.84466193261279
O          -1.26213426275525    2.43879213293377   -2.03737020230808
H          -1.75395961134292    1.73028066709170   -1.56331394738047
H          -0.67406251848863    1.95948213072525   -2.62641440644881
O          -1.39027686350874   -3.18792154273285    1.64042839604555
H          -0.51785965511622   -2.86295870448314    1.97895816162313
H          -1.28185457793489   -4.12072366086123    1.44457953838914
O           1.82020182192297   -1.85942686683000   -0.56388736666096
H           1.19153876350890   -1.20232995316170   -0.92607487125919
H           1.66473185338495   -2.66101773489248   -1.06615964555164
O           0.04250626030406    3.82867252984398   -0.23109013338174
H          -0.61800804470471    4.11714583650605    0.40135738212048
H          -0.46721744941737    3.41535201830460   -0.97934803558052
O           0.93552183765813   -1.99551201787680    2.04574629213897
H           1.44545189416016   -2.11308626104991    1.22463240527281
H           0.41158566676912   -1.19199053682213    1.87304225811347
N           1.33726860685421    1.59669857054270    0.27408460420552
H           2.28630280411089    1.56312486330233    0.63063101670361
H           0.95145702442604    2.58021444706351    0.16566777683506
H           1.22663734873569    1.10117344660918   -0.63848422954129
