    26
        -50.47022476  Gyration_radius:  2.3916061675 Dipole_moment: 4.350
 S          -0.11844485260754   -1.39363597942375   -0.29738055314995
O          -1.47970158346682   -1.66480016511007    0.12840506036838
O           0.66184612518964   -0.75829760221615    0.77298415386967
O          -0.10748071090871   -0.54891504199031   -1.49770487989529
O           0.56682125654408   -2.73107646240859   -0.63752475325953
H           1.54667342915479   -2.51344008305927   -0.65632706406752
H          -2.16242573233226    1.29832878544013   -0.21097465999571
O           1.06855950013052    1.82593781427132    0.52664490258623
H           1.54502424434927    2.08497650245456    1.31796934503096
H           0.94401202947032    0.84900386296381    0.59266163306769
O           2.95168636192443   -1.77977671773834   -0.43992175660721
H           2.75687304340497   -1.46150738178378    0.44775506349561
H           2.91702016214222   -0.97870297322486   -1.01533759411004
O          -1.60566145468583    2.13537768554007    0.92899336229944
H          -0.65902910842311    2.25641786121932    0.71059522502608
H          -1.60087824919586    1.47240022540381    1.65673937142795
O          -1.29495848842936   -0.04027769389656    2.45262260152845
H          -1.93730061180632   -0.74047674199604    2.31339828208197
H          -0.50381687776607   -0.34367907854016    1.96570535468250
O           2.33717099406555    0.48376093118719   -1.71878729316672
H           2.21979865895617    1.23386034195879   -1.12358718413784
H           1.43675486512242    0.12412745244473   -1.83558483555600
N          -2.37558370454340    0.52171342008833   -0.94135522973192
H          -3.18614916758096    0.71212101514324   -1.52003995803247
H          -2.42517363788176   -0.39308256936721   -0.43094126757312
H          -1.49563647081420    0.34964258265244   -1.48900732617652
