    26
        -50.45067618  Gyration_radius:  2.48162459223 Dipole_moment: 2.577
 S          -1.41720190994616    0.40421999844410   -0.28192296196792
O          -1.12473188567514   -1.00198894739513   -0.17128894440466
O          -1.37926732973530    0.91966984076407   -1.61735426929375
O          -0.42183391407068    1.19391368163004    0.60543381089862
O          -2.76214238307165    0.70838510392551    0.37318362126134
H          -2.61781086106830    0.55773572684299    1.37556969579924
H           0.22402238182022    1.69842580643336    0.00193937591249
O          -2.21086776288801    0.47006875987606    2.83309390402583
H          -1.28860623053544    0.10875956684775    2.94280271449150
H          -2.16434034947124    1.37516635654348    3.15016397999806
O           0.23141110089613   -0.42716495044486    3.25314127238564
H           0.21614264994099   -1.26617880697455    3.71801682164270
H           0.71575128528845   -0.60099184196491    2.41487651670902
O           0.99849146902654    2.19292251955759   -1.23064810717000
H           1.64346480737006    1.46211516029764   -1.33677947450887
H           0.25031330347058    1.98569064385895   -1.80966777400538
O           1.31879751802284   -1.24895889611029    0.95166966499378
H           0.43437019637193   -1.31418457631539    0.55309702941144
H           1.85794399750489   -0.77368708459695    0.30460582562898
O           2.37555589514892   -0.10788429388293   -1.43364221526181
H           1.66424138378033   -0.60366609848789   -1.93557506322836
H           3.21305360677962   -0.31734271426867   -1.84944777564925
N           0.32498834864111   -1.27491968450075   -2.64299858373167
H           0.33221308040223   -2.14056316346352   -3.16893522341400
H          -0.17077858075114   -0.58002240570608   -3.18950419094185
H          -0.24317984724918   -1.41951968089394   -1.80982964957667
