    26
        -50.46652647  Gyration_radius:  2.47643890475 Dipole_moment: 5.851
 S          -0.29201561746991    0.62985064031181   -0.86295596389745
O           0.74557915287739    1.44855852050535   -0.21924850047090
O          -1.45677544690140    0.48704621897607    0.00125840967506
O           0.25335686361503   -0.65937584986496   -1.26337709562653
O          -0.69958101120126    1.42742766842372   -2.12037045712427
H          -1.44839866870548    0.93752393783404   -2.56168933267603
H           0.97875120087203   -1.70660832397728   -0.15463151415315
O          -0.36937724095326   -0.69230837461063    2.14903730589224
H           0.09110584572002    0.06770998061617    2.53637130976124
H          -0.90983721729512   -0.31409627380181    1.42916436979560
O          -2.71538451650362    0.11955088800847   -3.08994279730386
H          -3.52672433353259    0.56688604586414   -2.83993533061785
H          -2.65653101459268   -0.69010862467131   -2.51908678654364
O           1.39310702944376   -1.99664176639741    0.69012523076020
H           2.30282929241095   -0.86191056641670    0.82364447354083
H           0.71204431830081   -1.76117817636215    1.36752062341439
O          -2.25599349623139   -1.70437915024994   -1.25806463670211
H          -2.18517756081616   -0.98554310232681   -0.60177635468960
H          -1.33428057677001   -1.90087444135349   -1.46967661564349
O           0.96276323838411    1.74204221098384    2.41945797164715
H           0.76645604636497    1.78074272567341    1.45880030455010
H           0.45354105329048    2.44476052949385    2.82538274128832
N           2.74507083299316    0.15845917588164    0.82394621152764
H           3.67600394203710    0.19009883088663    0.42396266795264
H           2.72495000455223    0.55293924350555    1.76418969803545
H           2.04451788010193    0.71942806305743    0.24789406761191
