    26
        -50.45932476  Gyration_radius:  2.43959436672 Dipole_moment: 7.815
 S           0.55320106939267   -0.72366100713816    0.02329170860339
O           0.57483305884373   -1.94324573310224   -0.77899587875998
O           0.55143640194228   -1.13888950572067    1.48931567049681
O           1.73742514673033    0.09856927650600   -0.25943157668800
O          -0.66225619358898    0.05284978908977   -0.25325580937634
O          -2.24212038977774   -1.83199750663928    0.97598025700701
H          -1.70074211326220   -1.28825566065242    0.38601085188612
H          -1.62179886501987   -2.40172853585660    1.43536695967847
O           1.54321239039790    2.25273990350162    1.27145870732805
H           2.43431866941623    2.43339267483876    1.57634786596116
H           1.61699006089864    1.50449905651849    0.64071859402944
O          -0.76856793941327    0.62100367067074   -2.81700807253904
H          -0.78277982448677    0.52805337652543   -1.83343630345528
H          -1.61681513727816    0.29226811723804   -3.12114755230284
O          -2.37295205845619    0.90553077369243    1.73134151684201
H          -2.73738123164557    0.01196279920318    1.80236468184581
H          -1.88579088483617    0.89301501311870    0.89267555271103
O          -0.00658536895389    0.82284097496423    2.90908865913985
H           0.33667145393245   -0.32517373751225    2.14974036277521
H           0.50563567951572    1.51797516319452    2.43856412596632
H          -0.95321250035639    0.95919136856534    2.64961300929905
N           1.53072602586647   -0.65235224122436   -2.72438630771138
H           1.15171247020184   -1.45639090683303   -2.11146385264821
H           1.96492052524379   -0.08834078127217   -1.95794752819947
H           2.16981221677500   -0.92181490267015   -3.46428058957908
H           0.68010732792021   -0.12204141900640   -3.05052505231110
