    26
        -50.46627141  Gyration_radius:  2.44747405406 Dipole_moment: 4.312
 S          -0.06492172329189    0.32033941633562   -1.37867761724267
O           0.67007680105436    1.06067971376891   -0.34472542816447
O          -1.48630672402335    0.32141958545607   -1.13348043817200
O           0.49325371537356   -1.02634108092645   -1.49984348088979
O           0.17456379680918    1.06133501909100   -2.72722809252248
H           1.12890617035963    0.92619953118287   -2.87513508420673
H           0.54175728931600   -2.17911368864264   -0.19872257614734
O           0.49620000137945   -2.47123966219100    0.73512666067893
H          -0.42851292350485   -2.23073387619730    0.99481632124207
H           1.22032221193627   -1.34200509670857    1.35886163470394
O          -0.72162143396694    1.26519632563545    1.98889713697635
H          -1.57062097996287    1.71331297844436    1.84347083701872
H          -0.26002897687431    1.39560006775247    1.14116185294739
O           2.57876757069352   -0.06772027241143   -2.72462536656996
H           2.81566958221648   -0.56926574664721   -3.50800467382938
H           1.94606278121448   -0.62046173468610   -2.21895366544243
O          -1.73033895729970   -1.14661957547592    1.14445836496236
H          -1.82652833922685   -0.79023478116872    0.24540452640741
H          -1.47846090101324   -0.36998849681586    1.67872423242286
O          -2.89399313407075    1.98432721090003    0.50313824717781
H          -3.79224509220019    1.65017212234332    0.48649379988819
H          -2.41404026581168    1.48890188705761   -0.18599271325138
N           1.59797710834721   -0.34208088798671    1.63636116266336
H           1.39188462315369    0.25459197026721    0.77666911975609
H           2.58393848563070   -0.33546697679756    1.87303199294039
H           1.02823932374603    0.04919604842152    2.38877322664021
