    26
        -50.45068918  Gyration_radius:  2.55166606662 Dipole_moment: 5.047
 S           0.95116248239773    0.68323174748208   -0.21462654085044
O          -0.29833824541541    0.50632208271889   -0.95935107226510
O           1.97607541119781    1.32329490456462   -0.99477092386317
O           1.43096257524566   -0.75514827833210    0.18887342946563
O           0.69683082787629    1.32082692075810    1.07958827508066
H           0.12478120176848    0.36795706412026    1.95835816965823
H           1.66627060640366   -1.22531301041402   -0.64864136809190
O           1.24140277844258    0.37805144870439   -3.32095014641982
H           0.28940496109414    0.48566534530280   -3.23964497550637
H           1.61061709741936    0.88657400042777   -2.56454792800515
O          -2.00164407914458   -0.74952827269486    0.59056412540783
H          -1.89338578145949   -1.60837832618826    0.15476563804804
H          -1.50576722760329   -0.13648251402789   -0.00539459116088
O           1.98529710183287   -1.83614174629222   -2.13642035639419
H           1.70679965113381   -1.07752328975392   -2.71901942041638
H           2.93157414781943   -1.93007592049358   -2.26013601108079
O          -0.80638876463613   -2.16323428405273   -1.47277714284527
H          -0.61751306405559   -1.21152669688932   -1.49951097444411
H           0.01382197004327   -2.59288997764976   -1.72889243728846
O          -0.56862722170676   -0.17356241032938    2.55715775225116
H          -1.20711847328314   -0.56071353892474    1.82481892323658
H          -1.07997640834399    0.62802937345450    2.96437266110947
N          -1.61147084334426    2.10028045409521    3.13499299969933
H          -1.53408820473384    2.55300683414915    4.03651479427052
H          -2.54705027340439    2.24869578696455    2.77807650668553
H          -0.95363225011191    2.53858228200000    2.49660064404400
