    26
        -50.45216439  Gyration_radius:  2.53455880458 Dipole_moment: 4.706
 S           0.68707991240941    0.86583345754336   -0.76892198460501
O           0.31088944831776   -0.53063834816518   -0.86555936380150
O           0.57818554330564    1.42828086853971    0.54180176767411
O          -0.17414678291221    1.67195946897018   -1.75493888741972
O           2.10207644407056    1.02886523469283   -1.31016244889501
H           2.13209590896023    0.43610286651935   -2.17196824443779
H          -0.99177643003345    2.02630717481284   -1.22455593956166
O           0.92171761257936   -2.16758593204468    1.26469529185511
H           0.75573280929754   -1.66157166122835    0.45412564227330
H           0.05493682917257   -2.41852546569659    1.59979627378823
O          -2.01551671808482    2.30269647922401   -0.17091858053268
H          -2.29719431770996    1.35912014766821   -0.01190418774776
H          -1.45080392837901    2.53290299301676    0.57464201915888
O           0.79979540373680    0.02612658440683    2.89616597774478
H           1.18988614862438   -0.77431637819817    2.50164553079814
H           0.79698857580463    0.67975738149252    2.18030356992437
O          -2.22711348472237   -0.27389896050569    0.17318544190471
H          -1.41226544864412   -0.53142006924818   -0.28051496029684
H          -2.11484694207200   -0.57583872760994    1.09972206698640
O          -1.61650174792837   -1.04683523696091    2.68505090319326
H          -2.17503771207212   -0.84018702958604    3.43478470619629
H          -0.74451354976886   -0.60661556117809    2.85595791660544
N           1.82134091221057   -0.55273728455210   -3.27749770297099
H           2.55270846970097   -1.19355225727374   -3.55514607287140
H           1.41547446255346   -0.12821781812888   -4.10049784837325
H           1.10080857160382   -1.05601192647855   -2.76929088656614
