    26
        -50.45101145  Gyration_radius:  2.57323983585 Dipole_moment: 2.762
 S          -0.55352970376592   -1.62433009200473    0.01121926472149
O           0.52882857999822   -0.78931113498277    0.48938741370570
O          -0.14414295934947   -2.64837663678391   -0.89601117507045
O          -1.61394097064942   -0.70732750018953   -0.64868118226532
O          -1.31495487946135   -2.23065516789568    1.17322381828755
H          -1.69639074687635   -1.47722250853077    1.78127357322106
H          -1.21355660647146   -0.22405083120438   -1.43255605452971
O           0.20225340244694    0.66643895235476    2.77779309008526
H           0.18883803900873    1.58635324660332    2.43318379178821
H           0.52477317979361    0.12313091780412    2.03914967106312
O          -0.47935646444866    0.40994687357613   -2.67698192704768
H          -0.98197613104352    0.21608797642149   -3.47036768123541
H           0.36804185604963   -0.14934761312827   -2.71568310793949
O           1.11433135155471    1.60693194531321   -0.64169079427133
H           1.00235977548682    0.73288873143018   -0.22651453066166
H           0.51821396502090    1.61073589167436   -1.39771980376593
O          -2.12254642939365   -0.41875758460404    2.70544724542336
H          -2.30457105330748   -0.80617856406324    3.56466426096863
H          -1.26264633875536    0.10423764096622    2.80515138299722
O           0.35298086037450    3.04017923837573    1.50518039448303
H           0.61866613473837    2.61828673707124    0.65851950514899
H           1.08684847803763    3.59748038197595    1.76801584250729
N           1.61742733181411   -1.12730208363253   -2.49804640458342
H           1.14978746770837   -1.85628037804272   -1.95849540617263
H           2.29649969000288   -0.68889186934853   -1.88793798944102
H           2.11776216151673   -1.56466655913693   -3.26152318742653
