    26
        -50.45101145  Gyration_radius:  2.57315746219 Dipole_moment: 2.761
 S          -1.56211340241933   -0.66289510348587    0.25862163993490
O          -1.95381725383033   -1.45521331642983    1.38021549274851
O          -0.25954561053979   -0.99857308154309   -0.27800277009534
O          -1.55596265380542    0.84081851696853    0.63263024074857
O          -2.62047797001140   -0.73186134773277   -0.82436745197154
H          -2.38121853531091   -0.07711720319267   -1.59671696920863
H          -0.86540882787686    1.01920101425087    1.33941786942603
O           1.98155868124227    0.36783236125084    0.40976697685500
H           1.23215279719056   -0.20444817345070    0.16528741223032
H           1.64461896644589    0.95431083837264    1.09492188926052
O           0.38424175589917   -0.25711375477772   -2.82751252203560
H           1.07784840640709    0.42114038478748   -2.67258627859009
H           0.27015603986728   -0.70362153450167   -1.97175458757777
O          -1.97563364736521    0.74928712576220   -2.74116022637791
H          -2.45719808425419    0.46467155436195   -3.52127322905015
H          -1.02047550805148    0.44233924991010   -2.86816032652772
O           0.20143510641397    1.14322558836450    2.49530583828280
H          -0.21395819204675    1.53669767828841    3.26491282301520
H           0.37293717039771    0.16598964836559    2.71461467065311
O           2.33221060916745    1.43336990526951   -2.03653042436607
H           3.21369188770293    1.20715711690925   -2.33667469356972
H           2.27494664370409    1.13238831373557   -1.10292279977717
N           0.48997317883799   -1.42898688726395    2.79917373425014
H           0.57717550706746   -1.93218871882839    3.67309363031618
H           1.21827607974888   -1.75453394422771    2.17531567265719
H          -0.40541312457028   -1.67187624117318    2.37438438879246
