    26
        -50.45101147  Gyration_radius:  2.5731828633 Dipole_moment: 2.762
 S          -1.51687568401573    0.64470813414413    0.47728741891419
O          -0.18084019997613    1.04902375021619    0.09140532455100
O          -1.87948413572169    1.01974602316080    1.80665375682169
O          -1.62608037511567   -0.89049862527249    0.29803558658325
O          -2.54046978101652    1.16868233605996   -0.51029370959324
H          -2.32901646335607    0.81280904139889   -1.46509983915053
H          -0.96705459234798   -1.35615828475591    0.89560109159657
O           1.94171837444200   -0.63443917107063    0.25148918798385
H           1.54715794722814   -1.39627017219783    0.68845792754134
H           1.24121663158007    0.04189556287591    0.22519895663012
O           0.47276753933104    1.20131996007665   -2.55640160976743
H           0.36898871383851    1.32620398434746   -1.59802603797013
H           1.11044683385667    0.46002697834827   -2.65107807894650
O          -1.95557598657454    0.41626243833862   -2.82859347568551
H          -0.97734490068719    0.67291769654643   -2.83991604653641
H          -2.39449160939516    0.99552403388669   -3.45572748600078
O           0.05983103671138   -1.95624901630780    1.93253309101476
H          -0.40031436941618   -2.56369165413001    2.51469061785914
H           0.29311109600956   -1.13402499123404    2.48209254864658
O           2.27054226665228   -0.80502160351924   -2.41418919660711
H           3.17331044442358   -0.55849557886355   -2.62030794067980
H           2.21403041911934   -0.84426779407716   -1.43403942213192
N           0.51890524868855    0.31563223160825    3.12388395114034
H           1.28381513240608    0.78528833806441    2.65494431839184
H           0.61801513350879    0.47122662415837    4.11911616576308
H          -0.34630870010345    0.75784975824169    2.81228287961608
