    26
        -50.47165801  Gyration_radius:  2.50868849006 Dipole_moment: 6.773
 S          -0.18690884508448   -0.99103757600942   -0.44723552705662
O           0.74204709059632   -1.36467536109584    0.60814087006272
O           0.42343249858306    0.05620878848717   -1.29249541880946
O          -1.46714632121563   -0.53856320304966    0.06857122502739
O          -0.40864497228470   -2.22971262974574   -1.33888100550291
H          -1.30476795824122   -2.05719442937769   -1.76258864783095
H          -1.42054585641087    0.64810131167007    1.29794059471831
O          -1.14033717430084    0.50115273586369   -3.38582902889957
H          -0.65204280227962    0.21679340166059   -4.16042412715310
H          -0.52642719253452    0.40905345167565   -2.62582770517788
O          -2.65993563137276   -1.36765421144278   -2.18514339682152
H          -2.72438673730132   -0.96507980238816   -1.30535005941478
H          -2.33648563725284   -0.65327378217836   -2.77292334916385
O          -1.04521921525060    1.26913594701494    1.95900247333080
H           0.13663712674303    1.76175955782346    1.16091657107906
H          -0.65815027078331    0.67505897633314    2.63801958309176
O           0.36579892333675   -0.64486590280047    3.18707125957889
H           0.38524496832951   -1.09777441114939    2.32351795733145
H           1.28219760122354   -0.44106053032064    3.38928239591725
O           2.79821852913484    0.09868312471189    1.36538808133281
H           2.09456175255682   -0.53371848005683    1.08414947922895
H           3.59848791645725   -0.18484114147823    0.92137910102038
N           0.98438111104736    1.87809289203884    0.48426836730915
H           0.76094579882627    1.25633504366860   -0.34657546366426
H           1.82689632548797    1.45610011549024    0.92548762428326
H           1.13214897188739    2.84297609468840    0.21013814621662
