    26
        -50.46404620  Gyration_radius:  2.45987749086 Dipole_moment: 6.112
 S          -0.89320529213623    0.01969270777501   -0.90039940468734
O          -1.37637565802719    0.58011418561905    0.38354148789710
O           0.58210277485636    0.53273003417261   -1.02720191270859
O          -0.86354502671470   -1.42668500901502   -0.85657985707168
O          -1.58275835124095    0.58902978463436   -2.02925237531318
O          -0.89670871069648   -3.02857018185152    1.38980690319516
H          -0.09562038052009   -3.50085478329720    1.14389785654664
H          -1.14925977082677   -2.52943785926840    0.59544463383367
O          -0.41211653783562    2.87025966142110   -2.25567175826031
H          -0.96473329773259    2.03990849202942   -2.27053546569312
H           0.40632184755411    2.62199402235430   -2.69232610876157
O           1.40395799667918   -2.76345067697380   -0.49831578275457
H           1.80375754299083   -3.00470012277423   -1.33437066857023
H           0.55677878414874   -2.31602221749876   -0.71632298001268
O           1.87252917906586   -0.47291883672415    0.88289188938598
H           1.96242689209117   -1.38268953751491    0.54334140550231
H           1.14363437261815    0.13109149283954   -0.26040755520862
O          -0.19978453845579   -0.64747950894060    2.46746594092508
H          -0.46480631561000   -1.58327416718357    2.36094021099749
H           1.19045387199193   -0.53102685220360    1.60918163714843
H          -0.78212374776239   -0.16926705134748    1.85066721127732
N          -0.23363852292107    2.82958043661706    0.34695559532344
H          -0.69490802108230    3.58689514446053    0.84146778967541
H          -0.78955973063997    1.87902272913936    0.45560170962341
H          -0.23649609598830    2.98432369686574   -0.71895650141673
H           0.71367671620367    2.69173438666691    0.68913609913293
