    26
        -50.46577277  Gyration_radius:  2.41278672697 Dipole_moment: 4.007
 S           0.67368874894327    0.93583471672667   -0.98071568860960
O           1.17606821921447   -0.41196657320857   -0.71179521332251
O           1.37519994918187    1.94555699377996   -0.23009554635057
O          -0.83424800339926    0.93707221714945   -0.49295626577467
O           0.55760115962446    1.19300251293485   -2.41002391991309
H          -0.64014309448102    0.44304905398556   -2.77789740731792
H          -0.79952834584903    1.01456559384786    0.50070973965642
O          -1.51658459135731   -1.80265194395026    1.22006287725389
H          -0.63324409642267   -1.88206363225861    1.60460788355454
H          -1.82550433712820   -0.92421291860866    1.45878219036808
O           1.15290681457162   -0.98881594861469    1.85864291840882
H           1.25111194451749   -0.87568668954552    0.88523187893610
H           1.85304826114368   -0.43469605385398    2.23380728141682
O          -0.73203514580823   -2.08081945107880   -1.35059059169901
H           0.11269265400639   -1.60822062573966   -1.16324488759061
H          -1.17752918764405   -2.11361756664226   -0.47722709646666
O           2.32906281244413    1.46462895227502    2.18494634614779
H           2.01980646437574    1.66497392901958    1.27252234888093
H           3.17212655065706    1.90962330140036    2.27472098467654
O          -0.59843020225816    0.98131680737677    2.08038921718728
H          -0.05784795137853    1.74186780544505    2.31287271167975
H           0.02009349409671    0.20940569008276    2.15121347895660
N          -1.53637144114467   -0.17622850566076   -2.87524298183713
H          -1.30754499833388   -1.05785475283903   -2.26253690730638
H          -1.72271339375274   -0.41849962424620   -3.84297190793298
H          -2.31168228388572    0.33443673227089   -2.46321143293112
