    26
        -50.45840163  Gyration_radius:  2.40101569573 Dipole_moment: 3.923
 S           0.26461294843928   -0.83505678656783   -1.34353468890735
O          -0.28254144648830   -2.15281314961107   -1.39927552411828
O           0.99684583048176   -0.57057122032517   -0.10748885881536
O          -0.81769399357732    0.22599473690255   -1.49710894441947
O           1.19654894839997   -0.57406936943306   -2.51691951718244
H           1.70027423985629    0.27722102452123   -2.24408619115860
H          -1.52738444978431    0.22568300422466   -0.66552912459234
O           2.34165790941503    1.44529386629322   -1.52617280592668
H           1.60057360106358    2.04507205293930   -1.20872943346898
H           2.66993581772084    1.00670202166703   -0.73602018754699
O          -2.27963063400976    0.20065828573254    0.48373954452353
H          -1.64296156787630    0.55439429429753    1.14582709754679
H          -2.34152907168871   -0.78307140139635    0.65546650367160
O           0.50858005707088   -2.20302715557113    1.97513039731955
H           0.78934231184007   -1.67945843705007    1.19986986108139
H           0.98673279603034   -3.03227565549108    1.92832763760521
O          -0.09231256296193    0.85552520102060    1.87697916095620
H           0.01290047133461    0.28169062062212    2.64071611525499
H           0.40774451748850    0.41934135492888    1.15815293536430
O          -1.93700430215631   -2.36040540805114    0.75274927689059
H          -1.20960544503693   -2.41897482615664    1.39889902882112
H          -1.51583042351148   -2.51327733851628   -0.10976815732838
N           0.28551251536898    2.81653963287825   -0.55504039655243
H          -0.46134991206935    2.35474254594976   -1.06232690405704
H           0.18128687182731    3.81625842054716   -0.67156415083503
H           0.16529496325749    2.59788368547347    0.42770731576030
