    26
        -50.45130305  Gyration_radius:  2.46769822916 Dipole_moment: 0.976
 S           0.22198053325258   -1.13128251576757    0.97216873958025
O           0.78479090274771   -0.73659900009473   -0.30226386110037
O           0.39758098736542   -2.52310379077176    1.25769704565456
O          -1.28137617048157   -0.76166326362382    0.98463597312931
O           0.78381569672939   -0.27461190213468    2.08304862626821
H           0.23856734255467    0.63881044622799    2.13898557266418
H          -1.72956609744155   -1.10761598924565    0.15935630010518
O          -0.44242532731488    1.87581450671573    2.19171392623096
H           0.03291760990345    2.47832830399028    2.76867769474558
H          -0.39947808353892    2.28470415488698    1.25417123660094
O          -0.11562788680341    2.83668459177073   -0.14614884629090
H           0.83766430622163    2.60387840618777   -0.22871893992280
H          -0.56648751185027    2.26226076335096   -0.79201493833647
O          -0.08029739001830   -3.24785289823629   -1.26839881392669
H           0.13477120136329   -3.22754350324821   -0.31571997867586
H           0.59235928753584   -2.70062277068738   -1.68397245618519
O          -2.25488795878976   -1.78956908207829   -1.17390140016948
H          -1.48472589652597   -2.39598297973469   -1.34782915382362
H          -3.01465771507174   -2.35354435738054   -1.01394768494704
O          -0.92605540701032    0.78427450613193   -1.75580048374224
H          -1.70307719728281    0.22209607949480   -1.81378673518867
H          -0.23703202681173    0.23835689197811   -1.34042238520638
N           2.35980194921580    1.70545249114518   -0.14573917676450
H           2.97646049983681    1.84059426333858   -0.93727209274025
H           1.94447878327044    0.77981584757344   -0.23496946132466
H           2.93050556894361    1.69892079020791    0.69045127336592
