    26
        -50.46797741  Gyration_radius:  2.40445740334 Dipole_moment: 6.698
 S           0.39031269745688   -0.50238860508167   -0.98027386775071
O           0.14410009147195    0.52538771547370   -1.98432124521137
O          -0.08252499074240   -1.81970880943512   -1.33488620195903
O          -0.45622547907912   -0.05182007213889    0.28263686724597
O           1.77576734480706   -0.48276186240051   -0.52358046742652
H           1.89842703701817    0.43216012370705    0.67160361623458
H          -1.38423738769166   -0.38420146783253    0.08473779525242
O           0.28688448944590   -0.63611412869292    2.89210528048931
H          -0.64223190246682   -0.45903133027286    2.72560550449920
H           0.49514683917298   -1.41343369862170    2.32313985400504
O          -2.61811050420305   -1.09773216648542   -0.60181598636081
H          -2.04810701319379   -1.77622472229757   -0.99210452233921
H          -2.80962381532834   -0.47724813208839   -1.33742149633907
O          -2.44358162212401    0.70947091329886   -2.57294957792126
H          -1.46888076836453    0.62483210116948   -2.50499719516467
H          -2.63930401347140    1.63950110671107   -2.44587721024957
O           0.84564572171126   -2.58202862798981    1.08959810857365
H           0.41708624321845   -2.43723422152359    0.22597835092468
H           1.78584092051292   -2.54655369021821    0.89727383864283
O           0.57860448679805    2.64905055364890   -0.45268550007229
H           1.11202508064982    3.23428452334471   -0.99397945626695
H           0.36797727391731    1.87897548276341   -1.02767739227133
N           1.69758244025804    1.11022220533680    1.47953042512118
H           1.09647006677262    0.53985904481346    2.14537401380446
H           1.15934432025331    1.86679939964085    1.01206451585650
H           2.54161243318494    1.45593835518991    1.92292194871121
