    26
        -50.45748048  Gyration_radius:  2.49166159027 Dipole_moment: 4.350
 S          -0.07507896497281    0.54631436811396    0.90027021732747
O           1.16296705663147    0.94683552087430    0.25409978515011
O          -0.17510000656862   -0.90956080403190    1.00787539726410
O          -1.24464928829121    1.07314797759265    0.17882843838117
O          -0.05639009926646    1.15049979645270    2.31312632825967
H          -0.89907944165132    0.88350269586754    2.78612711036674
H          -1.13363515002989    0.82326474417651   -1.23618750137889
O          -2.81642148305195   -0.95514888759305    1.24260523888988
H          -2.97506622592637   -0.21178720210714    0.65126332393111
H          -1.86514373250001   -1.15525115551850    1.13327619035136
O           0.22435398027234   -1.59525458304126   -1.50291223510520
H           1.20706178310759   -1.48459909683323   -1.54897962381221
H           0.02790251502337   -1.52448193221317   -0.54026756842713
O          -0.83974702896681    0.53492046959099   -2.20499013380829
H          -0.04812493364453    1.14731591212455   -2.39010520464736
H          -0.41533593491737   -0.44308573730192   -2.02482150334225
O          -2.19284526025727    0.28628513218734    3.47340069198217
H          -1.95224237011310   -0.37747324456488    4.12333153481012
H          -2.60616981629294   -0.20105066961668    2.71451516921289
O           1.30014220650464    1.92506897295363   -2.16732306627939
H           2.09163675474318    1.53103651096716   -2.53940993672447
H           1.31968590864823    1.73134403380200   -1.19902186085399
N           2.79933199545611   -1.01498852177055   -1.04055856738443
H           3.11106472611463   -1.77072149428376   -0.44268793579748
H           2.43281928025114   -0.28433867079895   -0.42839370640464
H           3.61806356975802   -0.65179413502358   -1.51306058192883
