    26
        -50.45219837  Gyration_radius:  2.66793170492 Dipole_moment: 4.969
 S          -0.45602484510306    1.44578625775766    1.70536250799814
O           0.43340935719641    2.26632716431152    0.91927642515902
O           0.20673778040962    0.30344637807377    2.30811244456434
O          -1.60881759744542    0.98006790453958    0.89021146508619
O          -1.05164235556325    2.33092237331031    2.83841334104033
H          -1.75505081588798    1.76364181242922    3.21228744993810
H          -1.30182627550728    0.59398417563704   -0.47104918431876
O           1.50864837813996   -1.18456153781019    0.68422799221025
H           2.17278910152841   -1.63573848087642    1.20734558478470
H           0.98696074149738   -0.63634922092137    1.33955138529929
O          -0.93268808902209    0.27929066418071   -1.39840083616252
H           0.04098541551636    0.63476840425561   -1.40527272429912
H          -0.78268915595028   -0.77202624852507   -1.33302569957934
O          -0.18766873371965   -2.09739324640410   -1.22068105707476
H           0.45155590919386   -2.03481410961717   -1.97576122002215
H           0.36091620815326   -1.98819922987839   -0.41983392223616
O          -3.04603657939629    0.60850556590520    3.06800054645140
H          -3.92201109811773    0.98304316115086    2.94944095442223
H          -2.66476802397361    0.50430852920006    2.17479346607663
O           1.49150662720977    0.92708967613177   -1.04116417694442
H           1.73672768127635    0.15040206134210   -0.50186450575110
H           1.25984326497560    1.61204750565822   -0.36877485707533
N           1.59104772793855   -1.38461623329649   -3.11969356495727
H           1.84682130558757   -0.46523949270881   -2.77388833780079
H           1.17908537928997   -1.26368071214516   -4.03651507052668
H           2.44218866177558   -1.92101314168291   -3.23109839628201
