    26
        -50.45157368  Gyration_radius:  2.55214198522 Dipole_moment: 6.563
 S           0.64605422115006    0.32535196145048    1.36726488317760
O           0.06362558388725    1.59327253155899    0.99408811912551
O           1.85461950783467   -0.02809043162200    0.68230040257266
O          -0.40943248979922   -0.75475617984770    1.15764822175156
O           0.91097812018847    0.32803054391429    2.88508940113216
H           0.00735727824787    0.58140209849462    3.28011641148346
H           0.07917033885068   -1.64278413561781    0.77730182510925
O           1.90025735256104    0.19814899520575   -2.05889465787169
H           1.21327613131804    0.87770008705767   -2.11962871823139
H           2.11367458096598    0.14303890508203   -1.11473007955160
O           0.43793611236917   -2.05576444813778   -2.23635992100086
H          -0.43760805425409   -1.62700285983960   -2.26404872034122
H           1.07976561547945   -1.31790677802356   -2.33077547578360
O           0.89870910326392   -2.61912279891815    0.22160478667746
H           1.75904563693824   -2.19780914561938    0.33708471129225
H           0.68943399551969   -2.53173278761363   -0.77159601571909
O          -1.70508655598008   -0.35121253619262   -2.40448589184884
H          -1.91248820519343   -0.20014838080120   -3.32855210231759
H          -1.26934606501752    0.45585317499439   -2.08289634575024
O          -0.28832120858657    1.89697210095582   -1.60235522144365
H          -0.17237843215909    1.79723933423481   -0.63075727683079
H          -0.39900375874722    2.83584763497373   -1.76323547638310
N          -1.52680546194442    1.00236373713350    3.32789844185338
H          -1.47443043085112    1.57068715831593    2.48876256291118
H          -1.96767655797017    1.53180568762774    4.06881752274848
H          -2.09132636804056    0.18861652123234    3.12033864322700
