    26
        -50.46173689  Gyration_radius:  2.44257884349 Dipole_moment: 2.384
 S           1.07815511214380   -0.07506245232986    0.87079184959791
O           1.81664204004458   -0.07026768269155   -0.37093413971571
O          -0.14949947728286   -0.89675502441237    0.73918223586939
O           0.71689444307454    1.26158634193862    1.32187192939487
O           1.94787462414543   -0.75853703225721    1.95100693500730
H           1.38626028969338   -0.64663931329180    2.77086909064881
H          -0.11171655040307    2.16164452874067    0.19997105827195
O          -0.00577456676418   -2.56707867459365   -1.33850125756398
H           0.09555566261531   -1.99994164114612   -0.54638096218281
H          -0.39542187609055   -3.38863608868440   -1.03576834447600
O          -1.17609672806018   -0.62600140594091   -2.72539931695360
H          -0.44089584400524    0.00653548316497   -2.85547601495655
H          -0.75104067631176   -1.45256218493783   -2.40055951660765
O           0.86498614742189    1.13104771135462   -2.45212079674870
H           1.58483031487193    1.32082221923695   -3.05548327592841
H           1.27584824540065    0.65265380065823   -1.68326442013883
O          -1.97816473487881    0.27017932267111   -0.53757976813398
H          -1.31578247610614   -0.23895296982417    0.06843730611507
H          -1.77139258843679   -0.11970488501117   -1.51364929295608
O          -0.67525200251136    2.41013681623622   -0.57216152897967
H          -1.58418477841526    1.24732250367467   -0.55530217280518
H          -0.12258311249650    2.25183219127448   -1.35726285752170
N           0.14202463997157   -0.10810717521588    3.70759454445605
H           0.19482787962467    0.18365045592034    4.67485685087094
H          -0.69377341758563   -0.66359796045933    3.58114483603761
H           0.06767944037829    0.71443310572010    3.11411701935246
