    26
        -50.46437163  Gyration_radius:  2.44647198551 Dipole_moment: 8.382
 S          -0.36036821625057   -0.12286531258508   -1.11178947140552
O           1.09263017239662   -0.24336830148271   -1.07308240552328
O          -0.80811597381796    1.25289378891633   -1.08750809675901
O          -0.90104068458797   -0.83833455733005    0.17041254044425
O          -0.94218945339958   -0.91082926809012   -2.19859979780088
H          -0.78078651927459   -2.22582117204380   -1.72315082379770
H          -0.55271792532697   -0.33144643451274    1.00481732805939
O           1.52122270693134   -2.47879042935729    0.14555527676804
H           1.53181653769866   -1.61718718183056   -0.34709614130731
H           1.41919552627020   -2.23985832089016    1.07051976093381
O          -1.75267111183141    2.33690074352978    1.15012495719693
H          -1.48754352881463    1.95782595183998    0.28382856648727
H          -2.70815229174757    2.28424577804936    1.18617275373901
O           0.67339348212709    3.41950726233350   -0.22819869266813
H           0.01654329154467    3.68575148567499    0.42222515815013
H           0.23037816894003    2.75246594036114   -0.77746273897389
O          -0.02292101934369    0.47346117502505    2.12175781385422
H          -0.63015931445443    1.23458140088061    2.07582609222317
H           0.85253921895107    0.81751623145589    1.78177501494699
O           2.07262166007306    1.35996888853317    0.85060913638664
H           1.92927367748065    0.78845184001016    0.07508783940323
H           1.79555830180736    2.24757512484251    0.54837045194496
N          -0.60169130586573   -3.20671456134169   -1.21558221422137
H           0.26237028782610   -3.03911635636161   -0.60677475919171
H          -0.44428887628944   -3.94886379403136   -1.89052196806593
H          -1.40489681103623   -3.40794994159817   -0.62731558081157
