    26
        -50.46460524  Gyration_radius:  2.52927942881 Dipole_moment: 5.770
 S          -0.83273330071425    0.10721284076598   -1.41992193519729
O           0.14366917327488    1.14573409141595   -1.69171646272087
O          -1.38685466842930    0.23828089676253   -0.07609656150671
O          -0.27901318418451   -1.22544241539497   -1.64439916124882
O          -2.03441513495161    0.29232477202327   -2.39806928441699
H          -1.66274012467777   -0.00508849083744   -3.25090837691848
H           1.00326104070828   -1.48589230595934   -0.51646431930177
O           1.55536725142665   -1.43721108963432    0.28838640330714
H           1.87479577836174   -0.52173657553559    0.31808821911984
H           0.19824472647251   -1.77323439996352    1.24825642983287
O          -0.63808119517136   -1.02292361067167   -4.22171092259837
H          -0.28388562928818   -1.24770841644453   -3.33579828852520
H          -1.03933299251119   -1.82530244301906   -4.56329176805507
O          -0.67951305450805   -1.59850510409089    1.67133904553690
H          -1.13822519388390   -1.04814388925124    0.99527111305705
H          -0.35796100599696   -0.60156441940901    2.66095149619314
O           1.98652566074329    1.32507747950432    0.07655407370819
H           1.31194938745691    1.26530493324907   -0.65869950666517
H           2.75079261537999    1.75402509647893   -0.31168471770565
O          -0.24836629308309    2.07530105594695    1.43474357048044
H          -0.80376811045631    1.54100099557975    0.81949666936706
H           0.63290870844039    2.06387668831081    1.01837797858519
N          -0.07595720459732    0.28208198406454    3.28597976955725
H          -0.14135903895229    1.11713982246504    2.58498498320340
H           0.87180127814774    0.18041962922055    3.63299468316369
H          -0.72710952899653    0.40497286448273    4.05333685977443
