    26
        -50.45208288  Gyration_radius:  2.52395844788 Dipole_moment: 1.260
 S           0.38738454287866    0.33818047826983    1.18098994916877
O          -0.72928527080975    0.86135038660095    0.42748573641892
O           1.60690054554406    1.05918820603398    1.05773839006707
O           0.62267013423116   -1.12923502345726    0.74305486121325
O           0.01739076851871    0.23977494467956    2.66233543560680
H          -0.77463772104226   -0.38691854730112    2.77155681448499
H          -0.11602003472013   -1.48554978748600    0.14206132204906
O          -0.59448379869255    0.18941302536753   -2.23079373807062
H          -0.76349302460394    0.76774725169072   -1.47266054712273
H           0.38606845619602    0.07585339974966   -2.24474245087706
O          -3.00514360285893   -0.55772346145827    0.56147048226016
H          -2.75725623334488   -1.24637836266066   -0.06798378676626
H          -2.33215874846946    0.13931504778399    0.44582565520092
O          -1.11016716260068   -1.96263203772011   -0.94043330947884
H          -0.99913666874628   -1.16591098609608   -1.55975134205193
H          -0.72030063412906   -2.71278108657583   -1.39379900573757
O           1.97544294589810   -0.18347604842012   -1.70219362778913
H           1.96412977846182   -0.44365598949130   -0.77650276539266
H           2.39267499663745    0.70901239785049   -1.71044530189345
O          -2.01895909463385   -1.26854914566134    2.85846510386589
H          -2.58615862941770   -0.97892694544655    3.57615591706229
H          -2.50922569111054   -1.07262433007027    2.00942573418716
N           2.88081992067104    2.33606951354534   -1.24580739774424
H           2.54182987167945    2.15627001984265   -0.30345489867751
H           2.38098009769520    3.13882947786164   -1.60650235183239
H           3.86013429677017    2.58335761261392   -1.18149486826100
