    26
        -50.45878467  Gyration_radius:  2.46780693164 Dipole_moment: 1.424
 S          -0.27209722805494    0.73979408194470    0.98292913900203
O           0.41271829916214    1.36501444016296   -0.13483590579203
O           0.18219396406293   -0.62228481453826    1.20112436768338
O          -1.73198730378875    0.77629070110338    0.78625421951031
O           0.04982319323028    1.58266624211338    2.24672775846670
H          -0.59910944205242    1.25300168972259    2.90336273714931
H          -2.12893308838473    0.24502770477392   -0.59741086619323
O          -0.34078617798132   -1.79362533767406   -1.07855861796629
H           0.45401047501080   -1.38062714268277   -1.53354426117373
H          -0.18966016042900   -1.56747975795482   -0.12807258738150
O          -2.12066425189499   -0.16126800257385   -1.53181272682636
H          -1.63192539062556    0.52986547235551   -2.10309796746837
H          -1.37326759027193   -1.00693252907133   -1.40104872122848
O          -0.55538183533023    1.55254782499276   -2.60638594665395
H           0.16396664347441    1.11916382437800   -3.07738692950973
H          -0.19640178208240    1.75749708746690   -1.71819659496034
O          -2.10866002798153    0.61501212409753    3.38514292618155
H          -2.77213498144193    1.23344225593841    3.70029214231005
H          -2.24805431475690    0.51844714619265    2.42341748134323
O           1.68410379249815   -0.34242298632975   -1.80183984911340
H           1.37208005168415    0.37546859331907   -1.21888356219551
H           2.35155740534071   -0.80108172114538   -1.24625261235059
N           2.88915261577247   -1.43064164874887    0.36649889314547
H           2.02572624278476   -1.18832677573024    0.85156262180959
H           3.64439934532487   -0.94479531969728    0.83419101075334
H           3.03933154672082   -2.42375316243751    0.49582385146460
