    26
        -50.45922801  Gyration_radius:  2.46006313479 Dipole_moment: 2.586
 S           1.08810769280935    0.34393669023438    0.76603894657675
O           0.68382407133162   -0.98306396278927    0.24485349632471
O           0.06549156753453    0.88596137494509    1.63583050071023
O           1.41507946759454    1.22353227637299   -0.34674174390034
O           2.35812399051688    0.11329307401566    1.61923505430993
H           3.01409987825672   -0.20967023153722    0.93794047396757
H           0.16847988344534    1.59376460181446   -1.37917062956201
O          -2.99054180172450   -1.36076203028218   -0.13820745567811
H          -2.48440680234640   -1.36763709198405    0.72022849195951
H          -3.39689132081542   -2.22512622667350   -0.22023881057678
O          -0.98879917003356   -0.86449204643492   -1.62976294318917
H          -1.86484200738878   -1.05051193104998   -1.12344074454656
H          -0.25036439375835   -0.98885774679976   -0.91945304026650
O          -0.72402459682890    1.58575076996489   -1.80498365000993
H          -0.94793605346313    0.21435940271378   -1.82420622126701
H          -1.32562932907673    1.92343477601643   -1.09740187111242
O          -1.35325688066497   -1.44976666501683    1.90894755371371
H          -1.27833886620260   -0.59027672679981    2.33976665124369
H          -0.53684268689787   -1.49835036669536    1.37519145907450
O          -1.89767388637712    2.21963132396247    0.46928665411531
H          -1.89164687840193    3.11512882226809    0.81066948875904
H          -1.20881901654986    1.73225233971800    0.97337761344882
N           3.58856669596107   -0.57432628161467   -0.56701074952679
H           3.01167123276161    0.16084249381037   -0.96660906912598
H           3.21301173241281   -1.46452701783145   -0.86697075981392
H           4.53355748792895   -0.48451960033696   -0.91716871555313
