    26
        -50.47009048  Gyration_radius:  2.50652049119 Dipole_moment: 6.355
 S          -0.70732494113661   -0.69276612004803   -0.47315566500300
O          -0.53611380558180   -0.79301707915340    0.99352852918969
O           0.54241461184013   -1.02188966659742   -1.14225279214802
O          -1.20230256140954    0.62282487846441   -0.82990277558116
O          -1.72512236767918   -1.77234730509923   -0.89442131289903
H          -2.60549551636605   -1.54446220168085   -0.48439508391474
H          -0.01242541485852    1.82186638913045   -0.73902024370958
O           2.92736097858801   -1.17910778540233   -0.04562819024368
H           2.05759677662777   -1.22014355817971   -0.51083124907206
H           3.12193350077141   -2.07635076686795    0.22816628115189
O          -3.91311140768934   -1.17241509434562    0.36886546820214
H          -3.60052198712959   -0.36765656083909    0.85419266191681
H          -4.09385458208614   -1.84009816474137    1.03378273435126
O           0.85016622832003    2.26739959988258   -0.58383407399779
H           1.39990534202823    1.97640636090151   -1.34290160318245
H           1.35420004421634    1.46065012737477    0.59082263859636
O          -2.58786479408580    0.80465262430645    1.50965753240604
H          -2.43930844225558    1.33263248682260    0.71551226281789
H          -1.81487084722300    0.20671133562336    1.53232669468321
O           2.13649557824988    0.76686057922900   -2.38991761619594
H           1.46723761715003    0.09433075999336   -2.16389340165966
H           2.97786193782527    0.39136132055732   -2.11916224510749
N           1.57368329934512    0.69115972502057    1.33103643408166
H           2.33678306909592    0.08393688560052    0.96848800633822
H           0.70450074743677    0.07916445270485    1.35046045125301
H           1.78817692604348    1.08029676734756    2.24247658773010
