    26
        -50.47009040  Gyration_radius:  2.50652978725 Dipole_moment: 6.353
 S          -0.69981099404905   -0.74706321228304   -0.39528784979166
O          -0.72109782419989   -1.02787039711995    1.03250725021553
O           0.69205586767086   -0.78763268458038   -0.89682456979201
O          -1.31254339384544    0.52566271602147   -0.72352473704045
O          -1.47035509344434   -1.89598489871063   -1.07729319824137
H          -1.51075416408549   -1.70336821524053   -2.05530096596586
H          -0.76634137322209    1.79169921943767    0.25651459132451
O           1.33146623459632   -1.01405169762165    2.67622475513362
H           0.53004191516747   -1.11938226878163    2.10944656486536
H           1.71243299991930   -1.88925143388447    2.75844295422550
O          -1.35380007520422   -1.37602863021335   -3.61866452706530
H          -0.80414781357989   -2.03017861977580   -4.05516303583235
H          -0.82493598725651   -0.53928070300176   -3.58545124520272
O           0.14879367341110    0.70874005754600   -3.01693306157459
H          -0.52265812430049    1.21877126597799   -2.54730215950662
H           0.54640534679183    0.15641876173131   -2.31512243260125
O          -1.22296095895886    0.80403034336582    2.95336189113448
H          -0.58490990664742    0.48561716273857    3.59652729639579
H          -1.28252336270053    0.10318361810502    2.27768641044488
O          -0.26730949530062    2.29001177102387    0.94158365001568
H          -0.68360422214214    2.00490118419114    1.78329303424991
H           1.05157742523429    1.55320631730223    0.89317247015181
N           1.85330945354023    0.82272977251118    0.78427057384641
H           2.74159888903647    1.25372179902957    0.55338269934275
H           1.51643165539785    0.16397556239803    0.02074794214083
H           1.90363935814534    0.24742319983567    1.64970567913968
