    26
        -50.45781314  Gyration_radius:  2.47534838751 Dipole_moment: 6.865
 S           0.46203865020363    0.77061611008455    0.20102721216771
O           0.68431368100571    1.40580418069300   -1.08640924573380
O           1.57315788522906    0.99292980722914    1.12806249088353
O           0.22723175704051   -0.66972944152118    0.03755590946578
O          -0.81055657069204    1.41670285264999    0.79601552648757
H          -1.03626746328323    0.95937907332519    1.67565424482814
H           1.85447045984883   -1.41335615776044    0.08297273355918
O          -2.14294794262753   -1.57581716134582    0.98286194830692
H          -1.26009508350718   -1.44056793126057    0.59529403102850
H          -2.73139935565122   -0.99439849358147    0.45365066332103
O          -3.19615163777416    0.43732398723365   -0.48444297852157
H          -2.70955045433330    0.26439416202003   -1.31477243324202
H          -2.70215125496090    1.14760902082337   -0.06144309789565
O          -1.24873001858408   -0.02273715788147   -2.32091203415498
H          -0.92658073126421   -0.86081090319066   -1.97783421790423
H          -0.59417380958466    0.63283286588055   -2.02391293021228
O          -1.58735851974454    0.12668894644418    2.85402923581217
H          -2.40633798197206    0.50801200414508    3.17855110164829
H          -1.84890098293131   -0.65755563884500    2.28491237358286
O           2.94488286116277    0.39903508423017   -2.00384440688892
H           3.51737062003918    1.13328826925599   -2.23367715489019
H           2.07370541284118    0.80252201826158   -1.77521394932440
N           2.79638290697586   -1.00139005307495    0.22832348909202
H           3.11208820824889   -0.61313301744360   -0.69563062473226
H           3.46140580192586   -1.62412894023151    0.67368380540552
H           2.49415357239952   -0.12351347613867    0.80549828787339
