    26
        -50.46742655  Gyration_radius:  2.40204283818 Dipole_moment: 4.781
 S           0.14060710000861    0.36694213008973    1.67590108289425
O          -0.54311941813626   -0.63594354459167    2.45546868808520
O          -0.75940523790400    1.05539212349580    0.75080584296455
O           1.23423861505634   -0.34380307305513    0.79081952443301
O           0.93790867641283    1.32049648499270    2.44344022916316
H           1.85549879653045    1.76726595043264    1.43007659038277
H           0.87488569704818   -1.14589017724947    0.29415343001067
O           0.26709446493120   -2.26746855887050   -0.59727627118111
H          -0.58813199300498   -2.40940891764611   -0.14733606361636
H           0.07964784733525   -1.74967593740369   -1.40115184435063
O          -2.46050401227120   -0.16337827071400   -0.88470780977029
H          -2.58715329007361   -0.98292153174520   -0.38572928951269
H          -1.99339065919217    0.42211949740159   -0.25473966043830
O          -0.41812556277560   -0.42374117745170   -2.50434957838338
H          -1.24689383153304   -0.28600387668516   -1.96337148654490
H          -0.70180954966063   -0.48249902073389   -3.41720762059597
O          -1.96673402605315   -2.19577879762982    0.94083909998830
H          -1.48346282626166   -1.58463213845883    1.55733387749676
H          -2.31045254290126   -2.90105059403147    1.49125031684347
O           0.65675222378113    1.83718282622184   -1.27417718053902
H           0.53872646289044    1.06095150809809   -1.84779579895733
H           0.00237827648080    1.68405801745749   -0.54940647283163
N           2.50045460535156    1.98678446983378    0.55793503092724
H           1.83932808013913    1.93707992657636   -0.29476140908092
H           3.18521710078850    1.23866420051707    0.49586478473250
H           2.94644499312744    2.89525850124310    0.63812196793862
