    26
        -50.44836267  Gyration_radius:  2.51427204742 Dipole_moment: 0.713
 S           0.30653795317229   -0.95042651913743    0.65758735342955
O          -0.32403131255734   -2.12838440268680    1.17336371198413
O           1.09338540257097   -0.20844966117261    1.59709334764851
O          -0.78657315210835   -0.01576004627320    0.05295801924248
O           1.16303516182168   -1.26113141271578   -0.56699075309416
H           0.55752125404638   -1.65095961634242   -1.32212478917334
H          -1.44848797428324    0.18059432572831    0.79463802938540
O          -2.34381998324773    0.31476273821614    2.04002737643042
H          -3.12370819035650   -0.23894474196856    1.95302363205304
H          -1.79137535322701   -0.09829114170695    2.75696872771469
O          -0.82941684802239    0.52157256012235   -2.75569261013249
H           0.10531200559076    0.84206131592503   -2.70029040557576
H          -1.19086452573244    0.67092427138699   -1.87578286710765
O          -0.27991349228068   -1.98393723931376   -2.47726576743267
H           0.26430522472560   -2.26023796783344   -3.21881675343547
H          -0.60730412121620   -1.05386507662800   -2.69390372207200
O          -0.67947016183174   -1.01283147792777    3.57729963919565
H          -0.60487751389294   -1.71380296859797    2.90593957270573
H           0.15317863293450   -0.53243430519242    3.50715313003071
O           1.69538118272930    1.09485539299432   -2.16561264207031
H           1.96272595940975    0.25520519239651   -1.77876034435746
H           1.59360835788846    1.69868517307240   -1.39109731293001
N           1.32126069041730    2.32957825423397    0.21409413263236
H           0.42824788968349    2.78285491234111    0.36296959806903
H           2.03973458992949    2.94110230531978    0.58163158208797
H           1.32560834373292    1.47726013591975    0.77159011480076
