    26
        -50.45748041  Gyration_radius:  2.49139664554 Dipole_moment: 4.345
 S          -0.19301040527339   -0.05316051874320    1.03714385351745
O          -0.72271852316635    1.11383484461978    0.33087204606348
O           1.24392533325542   -0.17342862300702    0.85968118797796
O          -0.88750743851498   -1.26779274469046    0.58106401937845
O          -0.44341936542409    0.11953390841321    2.54348390851867
H          -1.43027632155097    0.21203492201203    2.69419741766050
H          -0.41909091074177   -1.67269812581054   -0.72091589697323
O          -2.98524849405546    0.48579149368947    2.79215554550076
H          -3.15124323555185    1.40661080253467    3.00527210140942
H          -3.26262534145044    0.36198196004503    1.84769441163156
O           0.22151829836553    0.66955611566442   -2.08684559794650
H          -0.23393756999267    0.97495584542083   -1.26859994221981
H           1.16006717951852    0.95331053623640   -1.95064408844097
O           0.06675145630957   -1.76930818730469   -1.64962120544190
H           0.12342579371437   -0.74050710445703   -1.97654865389490
H           1.01473283300390   -2.02443596013473   -1.38059021853495
O          -3.21019751394259    0.20569902145778    0.18888159738377
H          -2.96630698913380   -0.71912060310431    0.07632715594733
H          -2.36629081608219    0.69300946933498    0.10290905349230
O           2.38882494013555   -2.00269944488030   -0.61734146629530
H           2.05392269026506   -1.39844805392542    0.08850025001683
H           3.11306966907578   -1.54331715020615   -1.04715604079902
N           2.58139518100886    1.44880567016273   -1.08463964729393
H           2.26277311360738    1.00093798680392   -0.22384179539184
H           2.46809869947735    2.44696832700784   -0.95595834703444
H           3.57336772701747    1.27188561290711   -1.18547963812665
