    26
        -50.44805222  Gyration_radius:  2.67230435582 Dipole_moment: 6.560
 S           0.75005339214472   -1.12989727484196   -0.90618953877535
O           1.14610960917772   -1.52630879003326    0.42360263923506
O           1.09175523930126    0.20131482822730   -1.28224905905100
O          -0.78317932740338   -1.34897562886649   -1.04004077583453
O           1.29024546026475   -2.13263683253268   -1.92697105992264
H           1.14286287980260   -3.05017376527300   -1.48556332434109
H          -1.29954771872184   -0.71130437986399   -0.44986694515804
O           0.46430303395566    2.85087395538211   -1.45360715647150
H           0.73940221133508    1.93098439018524   -1.58214465696801
H           0.82597900930287    3.09658205708215   -0.58853911182947
O          -2.10860800049797    0.22438468389486    0.48578484492344
H          -3.04541202558696    0.04831549903730    0.37914745888622
H          -1.98178904222521    1.20224069659381    0.22468434921057
O          -1.78144857008986    2.69732610244452   -0.08214902246286
H          -1.09588549309256    2.76484177491278   -0.79383502178709
H          -1.32539346499220    3.06325843320969    0.68645170004659
O           0.23470524948655    0.45155206290057    2.04596573149731
H          -0.68961108265498    0.32216753020552    1.79988328054784
H           0.72519052061446   -0.23335071524453    1.56208516469029
O           0.65701634622367    3.01910230870122    1.36064465796479
H           0.56690427236541    2.07139920406701    1.60822257614813
H           1.31239092127645    3.38487070361006    1.95500120288687
N           0.84034479922412   -4.17415500882511   -0.45258385557927
H           1.49141059485445   -4.94092891897388   -0.34987425230102
H          -0.10166716169875   -4.54044094461229   -0.47540826736968
H           0.93386835764877   -3.54104196139206    0.33754847180997
