    26
        -50.44784348  Gyration_radius:  2.55660516431 Dipole_moment: 2.796
 S           0.42458104878185   -1.06189471113661   -0.97852893914209
O           0.12042828886835   -2.36242022444349   -0.45786642917631
O           1.68226811086467   -0.51772592066805   -0.53988341255277
O          -0.71128689629272   -0.07556305339879   -0.60917267281199
O           0.35443397273897   -1.08932536968313   -2.49679709668659
H           0.30124017614614   -0.11046390629797   -2.83508301900977
H          -1.12417620193689   -0.27448879882285    0.28125134831022
O          -2.17498292468603   -3.16199048705383    0.58441809234252
H          -1.98907890063927   -3.95081705781003    1.09744623470012
H          -1.35944112731288   -2.97850345485541    0.07107970584094
O           0.32238207719326    1.31072685777014   -3.23371688454424
H           0.69875908630328    1.75086620520291   -2.40766236623659
H           0.97427285861321    1.44223583076937   -3.92638576831998
O           1.48172783667743    2.11856548271447   -1.08525570320794
H           0.90806204527516    2.43757684409371   -0.35567203395642
H           1.73911846216764    1.21738943618044   -0.82448106642561
O          -1.91284559838694   -0.73974246480584    1.58649710153592
H          -2.12117672348990   -1.66874043491712    1.31295308197113
H          -2.73927363401094   -0.25182192893016    1.57547478105487
O           0.17896790791289    2.71719365993558    1.20903060138920
H           0.68370180917056    3.36816035795633    1.69922021852572
H           0.39109553303332    1.83977669475007    1.61176715971542
N           0.91634999565517    0.27902174644205    2.15571250745680
H           1.55443355216609    0.10294767993981    2.92162783177872
H           1.33503290033781   -0.09965085443511    1.30977545416276
H           0.06540635484821   -0.24131209850865    2.33425129328995
