    26
        -50.46843468  Gyration_radius:  2.53791204082 Dipole_moment: 4.846
 S           0.63848341974543   -0.31508168518977   -0.58612564586484
O           0.50109680968435   -0.69438456238312   -2.06319046521127
O          -0.71584759706903   -0.36262488108628    0.00994970643117
O           1.50208830649352   -1.28624325535703    0.05271823813818
O           1.17934157375982    1.03935218643527   -0.48087005442716
O          -2.92459105859060   -0.37594230408312   -1.49099263489135
H          -3.00548092092798   -1.28618884689341   -1.78060864365782
H          -2.18047565563356   -0.35605533955361   -0.85497430302854
O           2.20571155119486    0.80126330679119    1.90372661329383
H           2.79896061392645    0.05624738779683    1.77084840068092
H           1.90415249262724    1.03646394921267    0.99366479828056
O           0.87091399638936   -2.77514812432499    2.12106750832182
H           0.44150337300104   -3.57307394952586    1.80972981999270
H           1.20739642829135   -2.31691207418348    1.31352715501490
O          -0.34035096044142    2.94836296906182   -1.46402945013463
H           0.22788820871979    2.28578823968689   -1.01181954750596
H           0.25790295513321    3.59638878122855   -1.83994810944326
O          -1.15678192796536    0.94442663295102   -3.03722668067420
H          -0.13821153916022   -0.02329055752939   -2.51607196276960
H          -1.97571411282656    0.59098791788088   -2.63223590042762
H          -0.96779488530641    1.78172025525545   -2.55802559143246
N          -0.09046834105779   -0.33295307343281    2.50789991691544
H          -0.72124997934628    0.03223895321138    3.21271164437792
H           0.15231284223889   -1.33957308665864    2.65108190723597
H          -0.49645996492226   -0.28169743545618    1.51764129304163
H           0.82567438204047    0.20592859614532    2.45155197774136
