    26
        -50.46742659  Gyration_radius:  2.40204435738 Dipole_moment: 4.776
 S           0.75237934236888    1.46230150399475    0.50841349324364
O           0.14956898226530    2.58315870640934   -0.17085876060730
O           1.34898994702575    0.50722113305545   -0.42522616092166
O          -0.37384921568579    0.68237307366314    1.28803960849756
O           1.68532055820194    1.80651343271151    1.57858923525648
H           1.65430840338079    0.59290473062167    2.34971872451193
H          -1.18538201901534    0.49345648329317    0.71813685789544
O          -2.34972770987627    0.05613373580380   -0.21750384419258
H          -2.19075106714575    0.63853829353217   -0.98523549989219
H          -2.03104454201169   -0.83046641224676   -0.46622650296102
O          -0.96381592321609   -2.19340053509361   -0.94137334767857
H          -1.19993387066593   -3.00190117787364   -1.39727084744847
H          -0.52147771632409   -1.60928052232925   -1.62086554541230
O           0.12550095877921   -0.45951690420046   -2.57478936469926
H           0.74464983973899   -0.09530771862684   -1.90999639590488
H          -0.49199901385611    0.26797353939582   -2.73642047962840
O           1.26615228990380   -1.82901202701220    0.69440930796167
H           1.44571744255042   -1.01017948577117    0.17091930987359
H           0.40950859727172   -2.13136955459264    0.34757998359364
O          -1.42145487781270    1.79265737543168   -2.08428733836595
H          -1.87140343756386    2.56539902165352   -2.42917271581007
H          -0.78481571982280    2.13424811302744   -1.40235647847663
N           1.50282987553843   -0.38402696068603    2.84711118821886
H           1.37020255082398   -1.08867308726296    2.03919981303051
H           0.64061661063458   -0.31853688035647    3.38068499933779
H           2.28990970451219   -0.63120788654150    3.43878076057564
