    26
        -50.45840168  Gyration_radius:  2.40077959811 Dipole_moment: 3.925
 S          -1.11690770032810   -1.14286573328346    0.13146977454149
O          -1.60889843854835   -1.41264884857415    1.44462142813262
O           0.34170228755354   -1.09940854158523    0.06409685980671
O          -1.66242647375127    0.17224996547078   -0.40982026609657
O          -1.61143029494238   -2.17835765971730   -0.86686003915138
H          -1.01404136170421   -2.03073573913460   -1.68803561622186
H          -1.31299903269430    1.03885275230781    0.15946668795829
O           0.07243062208800   -1.65801544463254   -2.67363017580077
H           0.85599957655373   -1.82973977672160   -2.14351868285788
H           0.04227750905261   -0.66011321921686   -2.78761587165450
O          -0.71851064154262    2.04553425971699    0.87831129099388
H          -0.72861701300350    1.65876625850873    1.80113610794875
H           0.21377042036423    1.98805857290696    0.56752629864034
O           1.66112852144927    1.22614096521795   -0.02576608802386
H           2.29277010057110    1.14590285074202    0.69411220854793
H           1.24682692214835    0.34322310124919   -0.10248595965675
O           1.66236406234493   -0.75264912711365    2.38244091809858
H           1.21020741502092   -1.00118256844433    1.55312875273168
H           1.76230576979243   -1.56053256718825    2.88814057290649
O          -0.64094936867807    0.58268977803466    3.02321732507255
H           0.27154783293597    0.24010986789119    3.02305691422207
H          -1.18169373148468   -0.15055968844875    2.68449151476728
N           0.02780819136608    0.99666010730701   -2.70670424800269
H           0.77660686536198    1.35645077021745   -2.12540443222836
H          -0.84188809790086    1.14184868275854   -2.20571387042175
H           0.00061608800120    1.54032097171875   -3.55966141426211
