    26
        -50.46506326  Gyration_radius:  2.61382203529 Dipole_moment: 4.707
 S           0.31778256344125   -0.44864007794273   -0.91129980835585
O           0.69363499730527   -1.15864260652750   -2.23223907160915
O          -0.72285869533070   -1.23553767211871   -0.24776957858727
O           1.52416517444406   -0.41071084676364   -0.08655493295954
O          -0.15471651405653    0.89482557982837   -1.22288731689384
O          -2.79059296941502   -1.52623817418528   -1.87471511601246
H          -2.09213459329931   -1.41246434061477   -1.19367421221765
H          -2.88586250582403   -2.47128170819872   -2.00407071180411
O           3.38588727118592    0.00332046032019    1.97821255690236
H           4.29756723029954   -0.27896672822718    1.89602467687102
H           2.94515602677098   -0.26492391670631    1.15854392824272
O          -1.21102112419836   -0.92127571408759    2.32723116483049
H          -1.13489209151482   -1.04512653892069    1.35192577502098
H          -1.12696706875695   -1.79656865459322    2.70888944472901
O          -0.25904074670519    2.83143923851905    0.56008578645565
H          -0.32314063896966    2.14326924633256   -0.14389675115700
H           0.20572394872346    3.56899476693152    0.16158057715234
O          -1.23946458474621   -0.05149222631513   -3.48838786634011
H          -1.98645210348273   -0.55416219666243   -3.09974733747049
H          -1.07406595789823    0.67297905391084   -2.86518831725927
H           0.00351512200397   -0.82123254724348   -2.87968545671192
N           0.72724398972359    0.87620500769708    2.05915567525359
H           1.51327728677221    0.96735148616417    2.70020019122681
H          -0.04477999987346    0.27844239342363    2.43424555486051
H           0.35397446009069    1.79189548180770    1.71829784926332
H           1.07806152331627    0.36854123421244    1.19572329656956
