    26
        -50.46386030  Gyration_radius:  2.53687139962 Dipole_moment: 1.483
 S          -0.88920720079931    0.60397920932245   -0.32319091130125
O          -1.30085986802550    0.82568908721767    1.06007953466079
O          -0.84679013496165   -0.83828485346512   -0.61455130583102
O           0.37789630863926    1.24025340299832   -0.61312356041708
O          -1.98929834908727    1.22736471645917   -1.21944769644865
H          -1.57700514933723    1.29781780809776   -2.11772588571718
H           1.85628557384138    0.84147375545891    0.09089265223073
O          -0.39584633973663   -1.04581839248678    3.05582014480204
H          -1.09435801553881   -0.65201878251268    2.51383756188042
H           0.14387679589137   -1.55545295840793    2.42791239667030
O          -0.38287486100216   -1.38658689850863   -3.12873645718005
H          -1.02494544365309   -2.06574824512220   -3.34381543378855
H          -0.49190106970801   -1.21024178104607   -2.16369276822970
O          -1.00726106144362    1.15919257741430   -3.63551272946798
H          -1.70256364299063    1.13692592843216   -4.29663445523363
H          -0.63031751170481    0.25174574301700   -3.58608761015729
O           1.03193545146300   -1.87167465002938    0.84293048011234
H           0.31250409210798   -1.48971232050286    0.27452982745985
H           1.24767962353393   -2.72282480595992    0.45821903773605
O           2.45788102595859    0.48534763393380    0.78485267569750
H           1.59424713141599    1.05111603856298    1.94539047895949
H           2.24298168184127   -0.46256082004207    0.81448968826515
N           0.75287627890854    1.28178204096991    2.57644667388597
H           0.88843183866444    2.10858384854252    3.14589921465631
H           0.50655286423127    0.42723129996880    3.12942498156555
H          -0.07991999853955    1.36242142769985    1.92179346519214
