    26
        -50.46059468  Gyration_radius:  2.43538579556 Dipole_moment: 7.580
 S           1.29479752705920   -0.29300184259392    0.32626599892625
O           1.39299779362048    0.09607176163744   -1.07272578798246
O           1.93858409417847   -1.54294380509676    0.63237560466088
O          -0.23863142440373   -0.44161827831283    0.65145810566932
O           1.69800623702975    0.80496352678874    1.21742210702393
H           0.64415056241450    1.09372789818395    2.11321575169372
H          -0.66762031984908   -1.07920250373035   -0.03576127296803
O          -1.25937855390480   -1.93495071078814   -1.10156131971048
H          -1.15393755722067   -1.37796612834456   -1.90212177597901
H          -0.55302033143200   -2.61439329348770   -1.16973209371722
O          -0.51103260717155   -0.12999876517681   -2.94647391371929
H          -0.82119700061361    0.77791979829470   -2.96074498602141
H           0.32220420990401   -0.11237388346410   -2.43819980083390
O           0.16056325952276    2.36011770870727   -0.77277972810362
H           0.80883352084079    2.94830809002777   -0.38183339653200
H           0.64350268773773    1.50913806459769   -0.91167217045358
O          -1.92166153157025    1.82945073294637    0.77140964484664
H          -2.17580838515042    0.95264854268569    0.46758773501624
H          -1.22486750050733    2.12475518688356    0.13239828087267
O           0.97278659726640   -3.38468782049712   -0.98002124992928
H           1.43226038089931   -2.70812848244504   -0.43273071136838
H           1.11227850485115   -4.22200221497054   -0.53483357635354
N          -0.26095303697549    1.30037506651405    2.72872274705439
H          -1.01652949262735    1.55497576844747    2.00562109836430
H          -0.09786632365931    2.04917568209316    3.39382910192403
H          -0.51846133013846    0.43963989105661    3.20088561764303
