    26
        -50.46059560  Gyration_radius:  2.48222571259 Dipole_moment: 8.770
 S          -0.06296253749997    0.15828701369512    0.93134858826302
O           0.92986896853262   -0.76566605785784    1.41852544329898
O          -0.58078592871092   -0.21196859738754   -0.38657019296199
O           0.58024120811999    1.57189672307651    0.74151834606969
O          -1.14931860442700    0.39716238818185    1.88487930956967
H          -1.66926173414216    1.64012786126491    1.49994105563019
H           1.14239877754668    1.48012788635504   -0.10430739147305
O           0.60528771507994   -2.41956428279631   -1.50086438179249
H           0.06956467498138   -1.65730706799352   -1.22714830057544
H           0.49854531850798   -3.05272863701566   -0.77149993025893
O          -2.34598825109205    1.43167119865030   -1.31617732518616
H          -1.65098555614155    0.77093637666576   -1.05097370698273
H          -3.11788496294843    0.91380923135721   -1.55237094231286
O           1.80769430094467    1.12303762337647   -1.42504503694054
H           1.10101398658017    0.78911353180248   -1.98529178417421
H           2.34209190343102    0.31365483525027   -1.16729372729976
O           0.46322910831281   -3.41407590984267    1.07202485511747
H           1.20593806618081   -3.86069568640863    1.48256539681471
H           0.55874695380285   -2.47069102945556    1.29889954663165
O           2.76288578491626   -1.12774913884507   -0.56075188613890
H           2.33344904587892   -1.04137366292843    0.30646425665622
H           2.16462774908580   -1.72556647291720   -1.06306434640743
N          -1.95708670073530    2.60399976482669    1.00305484763183
H          -2.67912941618348    3.11188717522702    1.50344516150015
H          -2.25881361134726    2.30213986511641    0.03324908427840
H          -1.09336626867587    3.13953507860652    0.93544306105420
