    26
        -50.45662174  Gyration_radius:  2.42886763608 Dipole_moment: 8.140
 S          -1.96982814622120   -1.10338959840718    0.42860784879466
O          -1.06426371741505   -0.62960117039373   -0.63238217594941
O          -2.78662031498444   -2.20369796412828    0.05727477844389
O          -2.66846265213921    0.06763027325986    0.98383590560264
O          -0.99471663866181   -1.61877163352988    1.57388497232632
H          -0.44427027616206   -0.86898983755676    1.87237020534307
H          -1.74650768950565    1.09876290111347    0.76120833792300
O           1.03947062601025   -2.16359289899893   -0.61678488338964
H           0.19534312831937   -1.65024602854086   -0.62896035886404
H           0.88118635109743   -2.89161624383854   -0.01385417274817
O           0.16090949885639   -0.29167156300045   -2.93553328841035
H          -0.54366779003357   -0.48879821440866   -2.28922694269740
H           0.78397144384238   -1.01891106329008   -2.84372592506329
O           0.70386494691908    0.36386492698700    2.31186939851643
H           1.14246477931592    0.14500357904497    3.13481911924655
H           1.38268707138453    0.22177339471866    1.57654264366147
O           2.27396421141047    0.03446636573338    0.30054076910255
H           1.94236769242084    0.69006413284774   -0.33285298447265
H           1.97790151119034   -0.83428464443590   -0.05203900220508
O           0.86310652226429    1.73778754907960   -1.42628572555429
H           1.08421172603598    2.47431159755224   -1.99765921621825
H           0.60885853971870    0.98651578394236   -2.03153639187299
N          -0.90782927201318    1.84226499623329    0.70298531975113
H          -1.25049083665580    2.78989878262572    0.81835459051970
H          -0.39004535212398    1.73575590318694   -0.19202579760601
H          -0.27360535292929    1.57547064416834    1.47057295576252
