    26
        -50.46117068  Gyration_radius:  2.40015336244 Dipole_moment: 7.811
 S           1.03914975974839    0.32391850720021    0.89328249925869
O          -0.38654109297642    0.68700330178816    0.86504041151590
O           1.89342589174217    1.36797987891317    0.40905457807994
O           1.14369096333187   -0.91371216109504   -0.08307799594511
O           1.38823810523310   -0.22967565936393    2.20036890562145
H           0.65214079458183   -1.44137370845112    2.20894261116791
H           1.46479231428889   -0.50434070795703   -0.96522402198264
O           1.85998025732887    0.37514822252779   -2.12004884980611
H           2.25919698136126    1.04112226337611   -1.54365790338493
H           1.03233735519027    0.79753513066748   -2.48290357973389
O          -0.20527272811770    3.02711847044159   -0.47019814946085
H           0.73109689325848    3.18011896303965   -0.31241448550383
H          -0.42296269751718    2.27924509434293    0.11213352336962
O          -1.52251675994074   -0.63629006356742   -1.17849828061971
H          -0.82726334876173   -1.19514967466201   -1.53346824493031
H          -1.09599596768578   -0.08792593241135   -0.48914765353874
O          -0.44059986282059    1.51293475192228   -2.69457997771050
H          -0.43764984738476    2.21848059540525   -2.01306925378260
H          -1.12195889597140    0.88486819008905   -2.41711299315091
O          -2.23698152296002   -1.10903356280389    1.54591986431211
H          -1.74047189958677   -0.26576676731480    1.52147942661629
H          -2.54460060154126   -1.22192374718937    0.63598472626204
N           0.02665032468379   -2.34759441099724    2.03451966746599
H           0.07202463760239   -2.98991295056581    2.81939260127914
H           0.38644106475925   -2.77251387424636    1.18274350343489
H          -0.96635009801391   -1.98026013911970    1.87453909119575
