    26
        -50.46294098  Gyration_radius:  2.43831347096 Dipole_moment: 4.221
 S          -0.06988173677793    1.00416957939819    0.50363262649397
O           0.39587343757809    2.37371364611704    0.30678222088678
O           1.05715902985675    0.15122361204899    0.89203974751023
O          -0.73434922306622    0.47877637336312   -0.68048444120080
O          -1.05807951625773    0.97478585606518    1.69351668834828
H          -2.01763023671841    0.90564938455483    1.39255621999382
H           0.30767343438075    0.28381144578951   -2.01677711590958
O          -2.40266692533521   -1.54917693845351   -0.15753558333529
H          -1.81039670809665   -1.92444086630207    0.51819641234205
H          -1.84679939141629   -0.89029795409958   -0.61202185761377
O          -3.49801129535645    0.49828852966684    1.05960224622685
H          -3.97130206028188    0.20012427239310    1.83912458883269
H          -3.26762776326944   -0.31700668150264    0.53541136068880
O           1.90786403015111   -1.75650177956211   -0.77397821288871
H           1.66353380844228   -1.09584137981251   -0.09372773608459
H           1.37610218377321   -2.53027450652046   -0.57617716758577
O          -0.41462039526613   -1.91247837318406    1.71033787372243
H           0.15409787265046   -1.15773523428758    1.45812865913093
H          -0.64846274561895   -1.76142319184189    2.62748178113476
O           1.15012815614200    0.12955219900949   -2.49928308302419
H           2.01581345454934    1.09766955405616   -1.75741653110608
H           1.47344800697853   -0.72363918580477   -2.13677007170613
N           2.49138646903035    1.74296003671205   -1.00584478372193
H           1.65264837380202    2.14355552738095   -0.43864383597963
H           3.06220974559247    2.47417272313459   -1.41778336978953
H           3.03189000450102    1.16036335163785   -0.37036662535272
