    26
        -50.46627136  Gyration_radius:  2.44739925823 Dipole_moment: 4.311
 S          -0.04995746416332   -0.03326640894949    1.41576808107226
O          -1.36215875542731   -0.58543625632554    1.18396054826769
O           0.20363586006576    1.14674210450694    0.57883592614190
O           1.02324411591737   -1.00754787212699    1.21846554202911
O          -0.00023052084664    0.44005059311042    2.89851775081375
H           0.93456115382836    0.69558129397868    3.00692166303328
H           1.40972532131647   -1.72964375835892   -0.31500880693968
O          -3.48894090339939    0.62310672054217   -0.01615564003411
H          -2.77947387696781    0.24661932825836    0.53684767664815
H          -4.16377147949663   -0.05545431972451   -0.07205615055399
O          -1.37830180722373    1.22219023921086   -1.63816466224474
H          -0.92808350551844    1.35608699406359   -0.78478266214405
H          -2.31689043192709    1.22626112431333   -1.38972791313340
O           1.39362627673213   -1.81170855572961   -1.29100576499412
H           0.43089631234968   -1.93930614942979   -1.48396975858726
H           1.51901994172155   -0.37929090322096   -1.63870861601204
O           2.64147676182019    0.46750472580349    2.62311019022368
H           2.24462792103102   -0.18274937734359    2.00564329520732
H           3.14291237210110   -0.03704785676504    3.26758713104573
O          -1.21040579015629   -1.50733037641654   -1.37185113446105
H          -1.35771098928887   -0.60489795361316   -1.71222901396625
H          -1.35259018851084   -1.42191636916605   -0.41423552012826
N           1.41965792015241    0.71984883119071   -1.67798790157834
H           1.07536796063831    0.97841517060789   -0.70229352998994
H           0.66491086507602    0.97887464980112   -2.31606843676995
H           2.28485293016663    1.19431440178730   -1.91141227296137
