    26
        -50.45047856  Gyration_radius:  2.42073205409 Dipole_moment: 2.598
 S          -1.18823024042251    0.10731885105834   -0.37883929498002
O          -1.81147659121636   -0.72449409314287   -1.35856169658735
O          -1.14137088605627    1.51531535178058   -0.63376733235413
O           0.23173156932195   -0.43050245321702   -0.14593134439514
O          -1.91847047959255   -0.13236742529111    0.97189543847832
H          -1.31258997632546    0.19166812143834    1.69850540366015
H           0.91892977107501    0.29114951860689    0.19640003656475
O           0.59937881209082   -2.02847884895599    2.12575763004308
H          -0.10416780722140   -2.35688921045275    1.52539491162926
H           1.38572137651998   -1.97912298597961    1.57743530479395
O          -1.33048041045010   -2.81970056585455    0.34516440817457
H          -1.44960916243991   -2.17761256763935   -0.37332171566014
H          -2.19213663183300   -2.90764799892995    0.75878819698379
O           1.14438793307307    2.68786017747004   -1.47437412915486
H           1.21657926545243    2.00172780557698   -2.16913055401508
H           0.20739906425367    2.64279618659385   -1.22727896052650
O          -0.10900695432837    0.42845104500448    2.71180973436847
H          -0.40804350781342    0.44456405479021    3.62355935315795
H           0.25568607109539   -0.48916792785453    2.55739996231795
O           1.79579049179266    1.34299468945780    0.63614467762314
H           1.32838910653245    1.72362786825520    1.38627300949676
H           1.68374260453027    1.96807844381658   -0.14656898741355
N           0.65819667778324    0.42184849002517   -2.97699044803865
H           1.21414159181448   -0.35419246114909   -2.63774808926928
H           0.60283102112684    0.34016011884166   -3.98558866385292
H          -0.27732268873337    0.29261582573824   -2.60642685105118
