    26
        -50.45444388  Gyration_radius:  2.44090965417 Dipole_moment: 2.180
 S          -0.43015654588089    1.41439814766837    0.87707861325586
O          -1.41573099167050    0.78755522324803    0.00188078008028
O          -0.47357746309908    2.83557731712115    0.89202474777953
O           0.96736336851569    0.91786721432538    0.44182441503310
O          -0.56370868501451    0.82924090549974    2.26902293502449
H          -0.98163642162886   -0.12545322313096    2.16811892628031
H           1.13010265508531    1.07892218349392   -0.57403525733063
O          -0.00450389481135   -2.62503377938346    0.25131635831143
H          -0.07897436926381   -2.15862743450096   -0.59524254933689
H           0.88034838356684   -2.38507696358923    0.61731996460653
O          -1.01671092983659    2.77951924193511   -1.81425031955749
H          -1.46120450843314    2.10817507610676   -1.27471482567844
H          -0.80682701139162    3.48088957062063   -1.18827649491356
O           1.13239829959697    1.22658695730314   -2.04267261190789
H           0.72299548310293    0.37936229817713   -2.29100896130695
H           0.43274499636942    1.90975267205064   -2.16988337125851
O          -1.63921793191859   -1.37811048714519    1.82299844473391
H          -1.00959743716394   -1.94240450840663    1.27060731785353
H          -2.32706484331372   -1.08326994869316    1.21956521298647
O          -0.60034548703777   -0.88816558416615   -1.87328430446162
H          -1.32724030159423   -1.09797181617474   -2.46223119283437
H          -0.96326755855067   -0.29742773986310   -1.17610355222457
N           2.27337056154935   -1.61091999468603    1.30132848674116
H           2.34856232775956   -1.73790134464893    2.30261184469741
H           2.02599640390596   -0.64090828677814    1.12971639001284
H           3.18588188115308   -1.77657571638079    0.89628900343081
