    26
        -50.46557531  Gyration_radius:  2.40223794737 Dipole_moment: 5.453
 S          -1.39422577457914   -0.33446079170707    0.73928026233168
O          -1.75535395453303    1.02974787165092    1.00271852689199
O          -0.25143284501192   -0.76577762581936    1.55445986413260
O          -1.11338321118031   -0.59242770324108   -0.67869468513229
O          -2.60129682039064   -1.24021304978383    1.13774011548519
H          -2.31570365005464   -2.13009812324309    0.86335672130952
H           0.37585507658528   -0.42996302681192   -1.52055571442711
O           1.31644714859819   -0.25702510764606   -1.73426009838509
H           1.40004439644367    0.73708259323930   -1.64723853167818
H           1.92248856199024   -0.66111939821809   -0.48749225833819
O           1.28000794649776    2.23687443227072   -1.02509107187061
H           0.34499795644979    2.43549269711471   -1.24559701177400
H           1.29161785556981    2.13884787517919   -0.05704719896921
O          -1.39174725303227    2.22248686273804   -1.36169714742071
H          -1.61778986700895    1.92473211676794   -0.45949554990186
H          -1.56239100510137    1.45905583266594   -1.91858964518812
O          -1.39222528202758   -3.15999596073045   -0.27026555952790
H          -1.89083963876125   -3.60396545839434   -0.95982892086467
H          -1.16382299397649   -2.27278220608574   -0.61603522158071
O           0.98546527887546    1.63473953348486    1.66939406832854
H           0.41464924635438    2.35628545640164    1.94334593057225
H           0.42318599301927    0.84152143999855    1.72969572587914
N           2.16263735396083   -0.86481246923610    0.58588818097958
H           2.59395572150684   -0.03985501874721    0.99882347915340
H           2.73404408208851   -1.69107892971084    0.72274546282720
H           1.20481566771738   -0.97329184213534    1.03444025716580
