    26
        -50.45130301  Gyration_radius:  2.46749892346 Dipole_moment: 0.976
 S           0.46708759676270    1.14459580777258   -0.86152961026793
O           1.01843392396924    2.45681936940318   -1.01524097265321
O          -0.36760541437299    1.01239433104518    0.31418062666695
O           1.59675950789760    0.08846436722655   -0.78768969879041
O          -0.29613882334757    0.72861283582201   -2.09773978676310
H          -0.24939885348787   -0.32978952234969   -2.20723619314517
H           2.04889449783271    0.12738808444816    0.10425530862236
O           0.20802762115456   -1.22393937479460    1.73575707929392
H          -0.07745752029612   -0.39021082391696    1.32502593948646
H           1.14502902035467   -1.11579296255314    1.91897938127509
O          -0.24050727876127   -1.73724515773389   -2.33635142339060
H          -0.58880283627416   -2.12135303028709   -1.45377237518171
H          -0.87154207718566   -2.00017455598380   -3.01053433340125
O           2.66838254121025    0.39614679580632    1.54082334836179
H           2.27149067149156    1.29322172570050    1.71082769430792
H           3.61906785601647    0.52162507198297    1.50398598108589
O          -1.27325170520204   -2.53561678217698   -0.14712653491530
H          -2.00106099818857   -1.87275663542575   -0.12038799171506
H          -0.68743191888464   -2.28783220998558    0.59165958954445
O           1.47516010230426    2.72773605067022    1.60214404053948
H           1.39356944294954    2.86109426552972    0.63777803929690
H           0.57731661990578    2.56448147546783    1.90491931817608
N          -2.88475165504711   -0.34394343813622   -0.23032978606919
H          -2.09231549727030    0.25669267926669   -0.00996711267456
H          -3.58165847484333   -0.20609320641045    0.49100533874170
H          -3.27729636864180   -0.01452518037586   -1.10343586640756
