    26
        -50.45373029  Gyration_radius:  2.46759516047 Dipole_moment: 3.392
 S          -1.62577061482749    0.26291454120119   -0.13902589633891
O          -0.77544708332759   -0.33556921000138    0.87266516844822
O          -2.22712448745764   -0.67267773496505   -1.03263037657012
O          -0.78896647465862    1.29512726809169   -0.92822886337531
O          -2.67281619395255    1.13972852525856    0.52784854896663
H          -2.15795063101295    1.61968442655291    1.27310921973781
H          -0.02158795691805    0.86353516484738   -1.42356799643316
O           1.09871562996155    0.06679093040676   -2.15146105662644
H           0.65239036532001   -0.84529725585846   -2.22738168330407
H           1.21420973744500    0.38674407687218   -3.04830016278880
O          -1.12266850636595    1.99437150814673    2.32017587242301
H          -0.37269044283548    2.48404638388140    1.89786444280501
H          -0.79493123220065    1.09741774934619    2.45611370407496
O           1.12014340174578    2.90364612827309    1.22992442829181
H           1.46867045615786    2.03217469089691    0.93207321439033
H           1.78338441774807    3.27856656861954    1.81174001977403
O          -0.22320106731345   -2.11591164503641   -2.19249122352613
H           0.07938995101639   -2.59390569497458   -1.38165372812401
H          -1.09262803663121   -1.75421161168814   -1.95171668878321
O           1.81192656139372    0.39922485434104    0.56067322475109
H           0.93057596055116    0.03573124374457    0.75683522677505
H           1.92441732379099    0.28799577528364   -0.39131156742412
N           0.43346578529764   -2.95972122472449    0.28393075564253
H          -0.06493529232391   -2.16430125894450    0.67619163515833
H           1.39486456588164   -2.90423002438343    0.59646091488840
H           0.02856385346945   -3.80187418488774    0.67216284732169
