    26
        -50.45185539  Gyration_radius:  2.46142884609 Dipole_moment: 3.762
 S          -0.91051202589032    0.92924205501820    0.89297577920209
O          -1.01600701484078    2.30710890049793    0.56662228641627
O           0.43504885474054    0.39204633893166    0.92397971123669
O          -1.76491730355225    0.09330447872804   -0.06054140502831
O          -1.55637852350600    0.68592544302876    2.27660414304375
H          -1.59911110080497   -0.30066465058595    2.40258300144772
H          -1.34854987404695   -0.82620493242056   -0.34896095405078
O           1.02575518556967   -2.11152887640860    1.30433534028249
H           0.93126226113494   -1.13558656973838    1.19033362792036
H           1.94131971288460   -2.27840880832735    1.53218495288829
O           0.31999493793605   -0.79720160225452   -2.78604786132545
H           0.24949456268245    0.13621773891706   -2.46740630447172
H          -0.13828476611477   -0.81672518179749   -3.62772314539407
O          -0.75147052565857   -2.07327545820217   -0.78230314307746
H          -0.32762393180404   -1.71528400164763   -1.60939712955362
H          -0.01732707497050   -2.27974130851367   -0.17907108029641
O          -1.53208504291183   -1.91759005786733    2.23876594223057
H          -0.60526689005523   -2.17363437123181    2.08475826263585
H          -2.02599960955245   -2.21498727592978    1.46894148974939
O           0.03484317612630    1.71125988916382   -1.96124135734769
H          -0.58776722674413    1.95738739117247   -1.26760423281272
H           0.89682187924203    2.04006819398743   -1.63389527770898
N           2.03781390644874    2.55501988528185   -0.30850617279280
H           1.58320170270630    3.39347009872948    0.03316806848527
H           3.03241523169963    2.65152943680371   -0.14500674311577
H           1.69332948930157    1.78825325465461    0.26245217144607
