    26
        -50.46652641  Gyration_radius:  2.47672060389 Dipole_moment: 5.850
 S           0.71968446153631   -0.83422865845517    0.10590167266400
O           0.48289329816988   -0.28190956133335    1.43357354842590
O           1.46517815550108    0.11363310059962   -0.73494241215718
O          -0.51816496923084   -1.23136095710190   -0.54996849269642
O           1.64797268615754   -2.06100546984043    0.23509298836143
H           1.20636375190661   -2.71373444134549    0.84710823098713
H          -1.68005912602594   -0.10295160600188   -1.03030043225401
O          -1.56014032140079   -1.91519449740479    1.86501933894861
H          -0.91657903871336   -1.18876739188149    1.96749227589346
H          -1.73007120854955   -1.92579330312953    0.91420879314065
O          -0.91945985981361    1.92200597421458    0.83275334757022
H          -0.46586964771042    1.14127447249348    1.20446829790467
H          -0.20584717087510    2.48264586262350    0.49206300832051
O          -2.05892251659327    0.77919636868061   -1.24847788243530
H          -0.94363302269842    1.23481010650104   -2.07440856294008
H          -1.89796846076137    1.30298389641989   -0.42514030500678
O           0.44730126129195   -3.60568180125826    1.93377274277516
H           0.86464320115726   -3.50845024797417    2.79238675723138
H          -0.41816648068671   -3.12297948918592    1.98843646644202
O           1.47101494106608    2.74868851069265   -0.34228246959088
H           1.61413179794867    1.77830385304897   -0.36737630109923
H           2.12515114770591    3.10057478310872    0.26283037599816
N           0.07121703529984    1.44275280679236   -2.47865566946188
H           0.69052525777876    0.78472375032462   -1.91214054810306
H           0.36172794625752    2.38997880333435   -2.23667344983828
H           0.14707686127664    1.27048511606859   -3.47474129906684
