    26
        -50.45739764  Gyration_radius:  2.43914093662 Dipole_moment: 2.408
 S           0.63591318064025   -0.42654159314509   -0.25095701579811
O           0.06691040660303   -1.62269386904755   -0.83465970356498
O           1.26504244480653   -0.68169959909001    1.03358020588165
O          -0.40022908705648    0.62686650562761   -0.11032907412370
O           1.67395344534010    0.11167292331908   -1.25632686724868
H           2.18553578112804    0.88448205587024   -0.85146884627826
H          -1.66684398463533    0.04552791157276    0.35935602092547
O          -2.43431984054427   -0.61815177177226    0.59668765193491
H          -2.59809568213502   -1.08378993807914   -0.37156365597383
H          -1.93647004794795   -1.30462448076469    1.16892529816363
O          -2.40079836532081   -1.61142654008913   -1.67899152622168
H          -1.46727697418646   -1.88118692606898   -1.51650073108893
H          -2.29276094711719   -0.82161037557183   -2.25074285390922
O          -1.20332254221643    0.57280016940697   -2.66720159334480
H          -0.41229165781533    0.39255441290900   -3.17855316346288
H          -0.89304752383857    0.76837619282389   -1.76401943931037
O          -0.78186836808694   -2.17740699360015    1.77687054273887
H          -0.65954548070831   -2.95562911312853    1.22561326503779
H           0.03838101568025   -1.64825287731592    1.64671139798819
O           2.97296236471657    2.00146329438246   -0.11047047337290
H           3.76596778766807    1.59639021744227    0.24756106227956
H           2.36642561046286    2.16776079749489    0.66897623092006
N           1.25558150123532    2.02026805499338    1.88983523023207
H           1.23822575545854    1.00162833096023    1.85307966219993
H           0.36828768916723    2.33469701590183    1.51631496326976
H           1.31368350883328    2.30852616497957    2.85827341217720
