    26
        -50.45077212  Gyration_radius:  2.59476501439 Dipole_moment: 3.023
 S          -1.28830803666686   -0.05589668142426    0.28074750342553
O          -2.06393677953486    0.48647876571607   -0.78719303538130
O          -0.33790453871588    0.86600458668051    0.85744532751190
O          -0.50942016161108   -1.31274423693552   -0.20849477290326
O          -2.19628788172207   -0.64170220761449    1.34867315445499
H          -1.69677460972847   -1.40876756247079    1.81643374855888
H           0.25411311416789   -1.00430157844291   -0.79374456040821
O           1.55664348949295   -1.99863237647968    2.90712099116982
H           1.86432455666365   -1.34369393388302    2.23502146889260
H           1.72210087138785   -1.59766200989064    3.76181916310794
O           2.15618433062668   -0.11234821387246    1.15065599524121
H           1.30481595290051    0.36165267359404    1.13992815954271
H           2.34492547080375   -0.33109582892139    0.23296737815060
O           0.85456436367911    2.09777367811757   -1.29238105230756
H           0.45223058814715    1.96845824956789   -0.41989755300282
H           0.11089562462834    2.36187400875052   -1.88796722888669
O          -0.92784914849283   -2.59118700464670    2.31384961050273
H          -0.82445256431768   -3.14180918222674    1.53336997857482
H          -0.00162554807347   -2.36231205116636    2.59908988434304
O           1.38329157528305   -0.38288552747908   -1.65273340650444
H           1.29420009876115   -0.59000654165978   -2.58458076955972
H           1.26017841467902    0.62107558095392   -1.56853400058616
N          -1.40679391678365    2.54505890454859   -2.69593529418221
H          -1.58391502354086    2.30401436867227   -3.66301658887710
H          -1.87110373984298    3.42545959939077   -2.51091486385838
H          -1.85009649219070    1.83719452113680   -2.11172925702212
