    26
        -50.44741466  Gyration_radius:  2.52534782182 Dipole_moment: 5.144
 S           1.00286467545553    1.04636641659757    0.80337104217862
O           0.14008508151416    0.97392153897141   -0.35619999807211
O           2.19695326354383    0.26257123573493    0.70943176830281
O           0.17790419716540    0.62967989437792    2.03566138461016
O           1.33530641562749    2.50061484040528    1.09916032940176
H           0.41784084421146    2.98734391708453    0.99369610296144
H          -0.10875815043627   -0.36500416929046    1.98526730890126
O          -0.48099052607074   -1.78251349339252    1.70329642169808
H           0.31626478444308   -2.16830002563227    1.28406465663554
H          -1.14738477135454   -1.70277069790477    1.00096732523251
O          -0.59773752812463    0.07527613420037   -2.98407871768796
H          -0.16774880372269    0.57345989494930   -2.28083155741144
H          -0.18837728102921   -0.80266273274294   -2.95897883208337
O           0.25609736823159   -2.42421542914593   -1.93260258392438
H          -0.53725708094846   -2.22105823560725   -1.41875057918803
H           0.96997189902696   -2.49176614024345   -1.28693014600870
O          -1.76062507120510   -0.94065634037523   -0.55560967833028
H          -2.15072342776201   -0.83169949310194   -1.43008289662966
H          -1.10366818678240   -0.22034476540717   -0.49606696394297
O           1.83467199448143   -2.33385236439165    0.42163212627527
H           2.59012112214374   -2.81674736142841    0.76163794120943
H           2.07305350300328   -1.38203233448229    0.45626716566556
N          -1.02505350939709    3.34909648286333    0.68843567724195
H          -1.21877697847812    4.26760269247190    0.31188151652995
H          -1.63961518011456    3.17110049864434    1.47167614573557
H          -1.18441865344974    2.64659000684481   -0.02631493931573
