    26
        -50.46216191  Gyration_radius:  2.43247090287 Dipole_moment: 4.243
 S          -0.34352097770329   -0.35428423757145   -0.82933549550595
O          -1.70996480529510   -0.42575499413722   -0.32716137332148
O           0.17833241867267   -1.64988459025229   -1.22399599340363
O           0.54188353900153    0.30861959255993    0.13657537243660
O          -0.41429016341125    0.57026298141734   -2.07334801346423
H           0.49669385946752    0.60019428887490   -2.48604734209755
H           0.37352518828862   -0.24409103519511    1.75848687397006
O          -0.75734516760655   -2.73257855858609    1.04981939994946
H          -0.35040802374680   -2.48705537295401    0.19857613820839
H          -1.70137804497351   -2.75488094436209    0.87731346935019
O           1.97983932267446    0.49444986098974   -3.05130516720652
H           1.98834100511033   -0.07486485480936   -3.82386085356762
H           2.43109017434300   -0.01572452339326   -2.32908880652246
O          -0.09484666883665   -0.61077888795009    2.53799103687158
H          -0.30910119343358   -1.52717177769275    2.25792994627553
H          -1.34189887824532    0.17541946354704    2.33771551889587
O           2.72898810259442   -0.98658932998758   -1.00962824223669
H           2.59242394144302   -0.40462856407330   -0.25515008376935
H           1.88079719254542   -1.46667678471672   -1.09520307198516
O          -2.10248580738375    0.71521854921979    1.85222463689397
H          -2.11167919796214    0.22640429151329    0.94032302690911
H          -1.63309787752421    1.63456963252018    1.56880088773213
N          -0.76340773581582    2.63297927048591    0.89708200411469
H          -0.24596813028880    3.29510665324667    1.46030061417497
H          -1.20442400966990    3.12962282648735    0.13402260751311
H          -0.10809806209913    1.95211705541429    0.49696290020138
