    26
        -50.46018706  Gyration_radius:  2.41865634137 Dipole_moment: 5.762
 S          -0.74089632479711   -0.04130695233250    0.01285404510435
O          -1.08999225784378    1.05558976351357    0.89644991975737
O          -1.05334799075237    0.33506303277665   -1.40269184604969
O           0.76996919865560   -0.25471520811882    0.03549913509569
O          -1.36496518548250   -1.30216232903810    0.37060462751087
O           0.61302253157613    1.90362438392636    2.67572786835038
H           0.84615360654055    1.02306204758846    3.02419952008560
H          -0.21972365349067    1.71878825680036    2.18305034245839
O           0.57646163900050   -0.82668279344717    2.66523961613742
H           0.74326679142089   -0.76764270174548    1.70987652515585
H          -0.31681318039996   -1.17170332553293    2.73118528541678
O          -1.12620891334779   -3.36022711477248   -1.17075924316692
H          -2.01538311535227   -3.58680782333044   -1.44830743507729
H          -1.23855238805028   -2.65414947716702   -0.47562109784890
O          -0.25475582090923    2.82737909266829   -1.02324319418722
H          -0.58774035968035    1.93637872223565   -1.28284802163573
H          -0.90331739562060    3.13856559940012   -0.38444723335525
O           1.70120014457767    1.97746899239239    0.41019742794894
H           1.02656498026884    2.48152557073097   -0.16713793057979
H           1.38106084133934    2.07868413993261    1.40893400973251
H           1.39085330194137    0.94484643750638    0.21715722527738
N           0.40180615060053   -1.51700397587648   -2.24971176037147
H           0.86456791886473   -1.53188640835951   -3.15155848398832
H           1.04389283132439   -1.32901094942290   -1.46360226729368
H          -0.31089152920410   -0.67949174445040   -2.09450130534150
H          -0.13623182409828   -2.39818522429012   -2.02654575810679
