    26
        -50.45292190  Gyration_radius:  2.46288006543 Dipole_moment: 3.151
 S           1.01118036301481   -0.13959902145983   -0.91912471117884
O          -0.07889644979821   -1.06982217949804   -0.71522680893716
O           2.10302211277362   -0.32384224976369   -0.01384289012549
O           0.46775499814280    1.30126170898691   -0.78703345040975
O           1.47631084370789   -0.19635996072458   -2.36352894919071
H           0.71741935584949    0.20978799087328   -2.93955159231321
H           0.49970552469046    1.54456935089956    0.19577908913058
O           0.60580122225475    1.55956438497559    1.73361844352978
H           0.07339796169757    0.73847839434515    1.93719556020531
H           1.52436923295435    1.31897640668636    1.87909270553956
O          -2.33695885330713    1.37358520936445    0.66643892402809
H          -1.71186053159179    2.07127807728710    0.87546620855067
H          -2.12071022001078    0.63078522890458    1.24232152452731
O          -2.20700268534819    0.14529086957955   -1.81092255926138
H          -1.58474411098939   -0.48806840139081   -1.41434882228659
H          -2.42971608186186    0.75021151069325   -1.08188850979343
O          -0.68362173272664   -0.70426090543309    1.88093152177456
H          -0.61168578069350   -0.96217207647811    0.94309226216552
H           0.01565012959164   -1.24030633378157    2.31974665707695
O          -0.47619440893058    0.73164983728692   -3.65143710778124
H          -1.21390124971086    0.64583967469054   -2.97796506214615
H          -0.71311998624731    0.15432412893639   -4.38159396307281
N           1.66693501395965   -1.91807092457532    2.42009127167483
H           2.34763828812711   -1.75495781374985    3.15209269138992
H           2.00629764527427   -1.46399364125833    1.57269279177095
H           1.65292940922672   -2.91414925543664    2.23790476510799
