    26
        -50.46189877  Gyration_radius:  2.46129886945 Dipole_moment: 2.841
 S          -0.66195679567245    0.48960235776027   -0.16920047350923
O          -1.53655440155629    0.80850774111988    0.94720761395150
O          -1.09189010409417   -0.67177744720792   -0.92660626919987
O           0.72961434531054    0.34833778892748    0.28369208095657
O          -0.68740010224708    1.66360519188762   -1.18534121179514
H          -0.38952748446635    2.49183674360451   -0.70983970971018
H           1.48006309270508   -0.84657145875360   -0.10301757526577
O           0.00222119099727    3.74169592461551    0.19494072674738
H           0.20643103099951    3.29397963257977    1.05709424863715
H          -0.77376997565420    4.28364980187408    0.35341756840506
O           1.80248505594441   -1.74400202738716   -0.51819387992571
H           1.05116308017060   -2.39591296679103   -0.19129519313373
H           1.57317406681076   -1.56858108113501   -1.54257863566152
O           0.26610132566941    2.19885493213908    2.30925759141492
H           1.00534359429817    1.62392101991363    2.08524009608837
H          -0.51792139231213    1.70415918550242    1.99784706951766
O          -0.28927303354576   -2.94053900303015    0.18350429517649
H          -0.79556867804861   -2.28492018352409   -0.33965697370088
H          -0.45494658632309   -2.65412057125786    1.10339112997148
O          -0.98680850860226   -1.43366526631071    2.29232597747847
H          -1.21001360644801   -0.60705671688079    1.82136154410247
H          -1.67686396548777   -1.56398697872386    2.94562495900791
N           0.90876695495184   -1.09176812017638   -2.79695690689176
H           0.02182814669297   -0.83611932851255   -2.34941105161843
H           0.72012795335446   -1.75415769458981   -3.53811948181050
H           1.30517477653909   -0.25497147565749   -3.20468755922899
