    26
        -50.46189876  Gyration_radius:  2.46133727067 Dipole_moment: 2.839
 S          -0.26021537105882    0.52440079064809    0.60262047572049
O          -1.63764258776415    0.98088178091671    0.51766961339324
O           0.68685046083622    1.42427945136476   -0.03034282921857
O          -0.13181293582140   -0.84314423675919    0.07838578785031
O           0.16744315294896    0.47632961649620    2.09472873996224
H          -0.45482926610854   -0.14149903478324    2.57624426801499
H           0.90372733881356   -1.12316574463370   -0.91666621752069
O          -1.57521907019713   -1.06547964972372    3.22855878452841
H          -2.08298985942120   -1.34384961657515    2.42223830849426
H          -2.17611691414846   -0.52827784335953    3.74949328272829
O          -1.77111926482299    0.75146450158912   -2.14113920717097
H          -2.51831399052542    1.26984069424730   -2.44596692528894
H          -1.75032491873068    0.84893110146466   -1.16903353441989
O           1.70820952705133   -1.07858275361834   -1.57422161516510
H           1.41936959983205   -0.28128316131363   -2.18854010431101
H           2.44989618821905   -0.66377880051804   -0.93347004977359
O          -2.73247190651562   -1.40660812627144    0.89087043958739
H          -2.54066466623757   -0.46639951350156    0.70218208889230
H          -2.07450146516513   -1.88408119784276    0.37480093523371
O           0.85133295429433    1.02351688579306   -2.64487166733624
H           0.88653812567610    1.44408751606982   -1.76069920336416
H          -0.10649377928549    0.87641689785125   -2.77375308480662
N           3.13083156570953    0.12997344511993    0.13827631225020
H           3.30067334707384   -0.36739363415164    1.00276686089554
H           2.35072639373061    0.77768696103839    0.29382222888075
H           3.95711734161350    0.66573367045617   -0.09395368804641
