    26
        -50.45484239  Gyration_radius:  2.45713821524 Dipole_moment: 2.851
 S           1.54281331590900   -1.04899956795758   -0.06969851905202
O           1.75379510537525   -2.32011000349428    0.55383708477244
O           1.60905124474498    0.08043937038727    0.82816590486655
O           0.17179961900135   -1.03734021008945   -0.78242024656590
O           2.50998005953723   -0.84605528856576   -1.22397983390083
H           2.37888448026176    0.14393988352052   -1.48017115743862
H          -0.61102249751930   -0.97025390151493   -0.11191715809817
O          -0.32935236699036    2.28626358071201   -0.98475147470030
H          -0.99950733983069    1.69566373309055   -1.39961818467321
H          -0.44228690264330    2.17328029689248   -0.03148571895925
O          -1.64359073424351   -0.84474564585875    0.96454224843977
H          -1.26691223638403   -1.48296569853594    1.61030668551516
H          -1.43088576609631    0.04261450205602    1.31689551363871
O          -0.14451948083068   -2.49759582556719    2.41994010197959
H           0.63778095533274   -2.46641142979987    1.83198570898398
H          -0.32256619161436   -3.42739739922937    2.57454915212514
O          -0.42948321689751    1.44153173265231    1.72374136556801
H           0.39066084140601    0.96928245160548    1.44573501635706
H          -0.27034651069650    1.75883585292022    2.61397520734711
O           2.11544013240766    1.60915403251952   -1.60041905629134
H           1.15652159841540    1.85861742745152   -1.44129655644682
H           2.60125514210620    1.99973678048680   -0.86982184290623
N          -2.12090469448365    0.45578843952243   -1.91643145217711
H          -1.45555296880221   -0.24809481872712   -2.21381051509043
H          -2.80056716504761    0.58693316690681   -2.65447522470544
H          -2.60048442240633    0.08788853862950   -1.10337703860200
