    26
        -50.45058623  Gyration_radius:  2.43324244558 Dipole_moment: 1.148
 S          -1.79115467315307   -0.02481629855067    0.69220925212515
O          -2.04017634461802   -0.53396099017571    2.00155630213465
O          -1.72076145993263   -1.04369925821735   -0.33628459577416
O          -0.44147463485019    0.75010214072899    0.69549020446889
O          -2.78720098760120    1.04486866218222    0.29620102590289
H          -2.36437556168769    1.60994536265325   -0.48179335963171
H           0.16194484892825    0.25594169734925    1.32511573916978
O           0.40574743810298   -2.50819103964449    0.24080816760475
H          -0.42254536638462   -2.05342121291326   -0.02609076097993
H           0.28888081743677   -3.43603469171931    0.02908969741093
O          -1.72271943199530    2.27103444130738   -1.60435651936769
H          -2.37509924535495    2.45802620503038   -2.28407185603063
H          -1.13463493165789    1.53277917033060   -1.97390398502113
O          -0.50021789609882    0.17433626574874   -2.42165221105458
H           0.43609302562258    0.01412125383141   -2.15596095999435
H          -1.01437391774863   -0.41528266305380   -1.84673333341608
O           0.66716084542346   -0.84681954596823    2.37053299121841
H          -0.22108172705574   -0.94801948176308    2.74244251500522
H           0.78640996774104   -1.59382100043486    1.75523023596805
O           1.82538515530943   -0.56268834509635   -1.33095046008826
H           2.15215874614106    0.07501330898078   -0.66234510989206
H           1.51640564975878   -1.32839728791629   -0.82991852951554
N           2.56309630793814    1.11288229985104    0.73814807662676
H           2.44426050956900    0.59643930595965    1.60157437876702
H           1.83211514229606    1.81220315915736    0.69276413611247
H           3.45615774376766    1.58745851242984    0.77289897818252
