    26
        -50.46222834  Gyration_radius:  2.4573769138 Dipole_moment: 5.938
 S          -0.05100421732437    1.45368438196677    0.85915931040825
O          -0.45741492135436    1.57154752231326   -0.54902139968964
O           1.32148407591968    1.80172369180484    1.07346190290397
O          -0.26896438256966   -0.06679286465822    1.22556904273464
O          -1.00370694270396    2.13401379819084    1.73808813242477
H          -2.11741163158542    1.27352600266050    1.71982498491551
H          -0.06060112573886   -0.65794388915742    0.44501231998720
O           3.00173921134820    0.07062991375298   -0.09253185864509
H           2.66081901903834    0.23791381773290   -0.98247888199424
H           2.52786854400751    0.71143336795394    0.47188063327464
O           1.23101861687824    0.51538369011145   -2.22154223289016
H           0.64417761216613    1.03033152664512   -1.61341708702843
H           1.18431306235060    0.95109648284157   -3.07343671257635
O          -2.37202292598320   -0.16868985118095   -0.86189478043790
H          -1.82963731587698   -0.96408490783273   -0.95087758306873
H          -1.72072369849933    0.57368842051382   -0.90644662777383
O           2.35228198885221   -2.48369857784045    0.21329757326455
H           2.67096097873306   -1.54747969791052    0.23787316579286
H           3.05684016045814   -2.99185431521072   -0.19038111773329
O           0.10321051656022   -1.58122480274082   -0.85099550688788
H           0.51566094508654   -0.98345777055460   -1.50030188982703
H           0.84822951146476   -2.10969309278215   -0.48311615946013
N          -2.90976312413929    0.48888464095438    1.61755674394438
H          -3.83449657107826    0.86511066324122    1.80107796832723
H          -2.68046944634546   -0.26006607685751    2.26467435278036
H          -2.81238794964742    0.13601793604907    0.60896569727154
