    26
        -50.45852416  Gyration_radius:  2.50867419825 Dipole_moment: 1.943
 S          -0.00296610973994   -1.16483224258026   -0.81092527524253
O           0.28970481793653   -0.19395806937456   -1.85635132802644
O          -1.35244753891796   -1.00707571170122   -0.29090051020941
O           0.98937890194317   -1.06660611238980    0.27234352277957
O           0.10016774538219   -2.59088286149166   -1.40053600442958
H           1.03527385453486   -2.59196016016744   -1.74817900809999
H           1.27277672782276    0.23636058223459    0.77053997193328
O          -0.13132353031333    1.12066515418910    3.16994924901785
H           0.23160506194359    0.54265358425401    3.84330328808264
H          -0.94335266277501    0.66032283354550    2.81727358171868
O           0.02125448370562    2.18454869959513   -0.79137391327611
H          -0.93325276985570    2.14149978653783   -0.57420004871600
H           0.17167123685252    1.39403349049824   -1.36274571404577
O           1.34412383618416    1.23711348714817    1.10590549954256
H           0.78393233347172    1.26916071369826    1.96984475619556
H           0.82127909401634    1.77223033471490    0.35848664344730
O          -2.16444624164224   -0.12582755758653    2.10540463173792
H          -2.74170088922079    0.53943070080736    1.71639475948874
H          -1.83318918946873   -0.64069652001809    1.34317915076561
O          -2.52073253702276    1.36076423629539   -0.43790590630030
H          -2.14678726213851    0.45074180538005   -0.46354533252057
H          -3.06291039721874    1.44747074704322   -1.22331596123025
N           2.51195859885295   -1.93536059889618   -2.11446062405515
H           2.98449397471939   -1.82069540749754   -1.22685696440100
H           2.07973695241299   -1.04654626271390   -2.34950074952807
H           3.19575150853028   -2.17255464153752   -2.82182771461869
