    26
        -50.45534181  Gyration_radius:  2.38262510722 Dipole_moment: 5.055
 S          -0.99354394296987   -0.75025895418379    0.31699281397368
O          -1.59521058960450   -1.15025793233120   -0.93134824595170
O          -1.86227519656445    0.04097265645852    1.17541748878145
O           0.21248730235764    0.23066846035169   -0.03313427511174
O          -0.34800334979835   -1.84717605805040    1.02969469805154
H           0.95036993238473   -1.50206014255713    1.49974197668838
H          -0.03092889701198    0.77022404218696   -0.82648680694109
O          -0.63636890378006    1.64686711203335   -2.06307156981509
H          -0.44533959962452    2.58562141401286   -2.01629115617481
H          -1.57632874768792    1.53948668044479   -1.75687425832529
O          -2.97886047516970    1.22769669950629   -0.93083350533872
H          -2.67767656884967    0.90237243286234   -0.05650094162414
H          -3.26720069615661    0.42854028185983   -1.38291940492972
O           2.75014588693840   -0.88733927774924   -0.64794948996793
H           3.24346604099751   -1.69311593008677   -0.81605098307755
H           1.96020606660252   -0.93055753830135   -1.24070037864989
O           1.83450581345321   -0.99390254767205    1.75919075825358
H           2.24685196249698   -0.81686006448075    0.84277188213684
H           1.37451192245979   -0.10712633837964    2.14638732359801
O           0.67452961977785   -1.18662286221774   -2.34592324826275
H           0.51832505908228   -0.37294234045788   -2.83430467858373
H          -0.16679553874938   -1.35839099948830   -1.87770760148683
N           0.40679707180945    0.89345856007157    2.67794104085617
H          -0.47340888514782    0.61072225016554    2.23393128433931
H           0.60361546577230    1.84520513923514    2.39620403142770
H           0.27612924698105    0.87477524676813    3.68182323613890
