    26
        -50.46949749  Gyration_radius:  2.56192435986 Dipole_moment: 5.897
 S          -0.38413622272286   -0.36292280886372    0.18419605796012
O           0.51600666667338   -0.69648418591164   -1.03982462697085
O          -0.36861773646679    1.10704816374132    0.31692398764965
O          -1.71132026199266   -0.87098137156935   -0.04869461152778
O           0.30116870820122   -0.97503578866318    1.31750463929391
O          -2.43343699875713   -2.09876765389124   -2.29430868375822
H          -2.18444472810938   -3.02094101090157   -2.22100390400991
H          -2.27255159659264   -1.70209247603146   -1.41249831422430
O           2.79163752548284   -0.59423415356177    0.54124297042660
H           2.74701453996141   -0.70400096367299   -0.41262878008239
H           1.92529645363632   -0.93457419815312    0.86063119655491
O           0.89123867423667    0.22653004331430    3.60016038012710
H           0.51469417543131   -0.28399569738423    2.84848505386844
H           1.37320956390208   -0.40902285725849    4.13246923042100
O          -2.31554833835848    1.52157024352402   -1.46243746170386
H          -2.96319059122024    0.87546550494983   -1.16592268162308
H          -1.63464842933302    1.52859520634039   -0.76469487360707
O          -0.85742146627064   -0.04852763972264   -3.05104490395669
H          -1.40556042476516    0.67439158735368   -2.66684283825829
H           0.00778772103534   -0.42418550860092   -1.89376407132930
H          -1.45485186104270   -0.82266836996146   -3.07787298399995
N           1.81270691213043    1.64315601624267    1.54732162331108
H           0.88076508897126    1.55227594795742    1.00801753908869
H           2.18958236626776    2.58374639542351    1.52136479632921
H           1.58969587043660    1.31651759956036    2.51671670398765
H           2.44492437927854    0.91913798575144    1.11650454603371
