    26
        -50.46638368  Gyration_radius:  2.41412446263 Dipole_moment: 6.547
 S          -0.69315508760049    0.84027455393541    0.99801244678001
O          -0.99092925364852    2.08686340726108    0.35434846981184
O           0.72952913260523    0.46203257238529    0.74266232032626
O          -1.54114259852010   -0.26990487836819    0.58145317689168
O          -0.81585119333726    1.01223528318714    2.52931159329688
H          -0.92123565108268    0.07748709855550    2.85700660120923
H          -1.81352495641785   -0.71480984299472   -1.05934141141793
O           1.53650962537462   -1.72608382531913    1.98250373366605
H           1.31016864604993   -0.86291107052375    1.57254145679042
H           2.18189688987200   -1.53873537770771    2.66594982427084
O          -1.55353363257840   -0.80633538383983   -2.00140173315735
H          -0.15030307312213   -1.06723319972401   -1.76672542280122
H          -1.52554394012778    0.13292362565777   -2.32145817488931
O          -1.04932112869625    1.74723737362113   -2.30343184442414
H          -1.24329136575630    2.00501506189216   -1.38165966887310
H          -0.08319872882155    1.80696460776163   -2.35835317198672
O          -1.04413434952344   -1.53770896135260    2.85895545434579
H          -1.48268207844024   -1.44376313773003    1.99719268218449
H          -0.14517984095743   -1.86235026156142    2.66180918445507
O           1.61609498054128    1.72893301096140   -1.47852395660710
H           1.30959888578365    1.44913971073618   -0.59453211647308
H           1.83364410710755    2.65872854407153   -1.39470098324916
N           0.90565029673977   -1.07574731568536   -1.39622033422455
H           1.50752210721669   -0.54191682882042   -2.02087806235325
H           1.26191804725859   -2.01376886550488   -1.24360990035491
H           0.86049418003373   -0.54656591084715   -0.48091014324203
