    26
        -50.46794725  Gyration_radius:  2.40412133993 Dipole_moment: 8.217
 S          -1.31702313272684    1.08453863715136   -0.21139942539097
O          -1.71819264129433    1.47471585734970    1.10922186701242
O          -1.31603684321520   -0.39276310697516   -0.36670281560909
O          -0.01043558243551    1.60648133477055   -0.60853657864915
O          -2.36957143535061    1.61797534746646   -1.22363033420720
H          -2.07053674518298    1.25816077477455   -2.08326016816641
H           1.22766312256537    1.58807146736226    0.52857960727085
O          -0.34331384448885   -1.78715543927410    1.58409409961192
H          -0.95901787011873   -2.48778383012802    1.80269951068239
H          -0.79120709363379   -1.23846534336638    0.88386152689742
O           0.73977765134334   -0.54167973672648   -1.88066241026375
H           0.86693615526438    0.41360606484411   -1.73461863526868
H          -0.09057571806233   -0.68428892560182   -1.35319805614275
O          -1.48895977684339    0.28599656908492   -3.36802268258757
H          -2.07518279425163   -0.47400848018756   -3.38403302246304
H          -0.60469223662286   -0.04918173749178   -3.14378584544704
O           0.00641017000622    0.66475352794403    2.96820117313488
H          -0.70197614551976    1.09152816081423    2.44375240898212
H          -0.11362008859607   -0.28145835666928    2.81239958497207
O           1.86067598139062    1.26530722924484    1.21127576829619
H           2.06772387527048   -0.10409355853903    0.78245834243586
H           1.29907730263159    1.16688431714248    2.02355965355152
N           2.02186517281262   -1.15082053473844    0.39632395732660
H           1.70238422911640   -1.06972624005545   -0.60046295878272
H           1.27047494836443   -1.62055534149141    0.93187673834678
H           2.90735335958475   -1.63603866676181    0.48000870445597
