    26
        -50.45011973  Gyration_radius:  2.4986829731 Dipole_moment: 0.782
 S           1.49101621654902   -0.08850874591736    0.42610600716101
O           2.45335848776930   -0.57466133116288    1.34681356281845
O           0.57781068808980    0.91809511420656    0.93731850650794
O           0.64442426276686   -1.25869082981783   -0.12258458500122
O           2.19000699562002    0.49628419589900   -0.81305670296927
H           1.73824880260315    0.18658880894521   -1.68560057846173
H          -0.30386151462932   -0.92616941525395   -0.26094073162322
O          -1.66701551681751   -0.18833648031666   -0.12667468338115
H          -2.08596230894751   -0.80376475517366    0.53170224666808
H          -1.27517258717439    0.52463584090766    0.39905411479385
O           1.01955697489043   -0.16660508670792   -2.94274066984465
H           1.45614932842078    0.20160779033321   -3.71377002761807
H           0.13008636209993    0.29653257148690   -2.86768986543495
O          -1.15541447079509    1.17064255574180   -2.52327888778554
H          -0.75773861652888    1.91585584789789   -2.02760235974290
H          -1.65515832988498    0.66213071437215   -1.87094479688686
O          -2.25758172364685   -1.89615341918353    1.76968060196543
H          -2.14577590219207   -2.80521307955629    1.48689690815202
H          -1.44799562866533   -1.66600188583570    2.29753194956795
O           0.28669277687506    2.81475267505727   -0.93171908905381
H           0.38978742110948    2.22429730544718   -0.16172955300645
H           1.17650208556115    3.04980557029873   -1.20041292018735
N           0.05117698025957   -1.14434244008917    2.93594334016096
H           0.86074216313201   -1.59973964685865    2.52745546572431
H           0.16454375059225   -1.16948974538527    3.94290972523777
H           0.12157328279464   -0.17355214907010    2.64733300229585
