    26
        -50.45695809  Gyration_radius:  2.4390859621 Dipole_moment: 1.617
 S          -0.73557302805548   -0.49062595568715   -1.07981799416250
O           0.03519344196987   -0.50753341553978   -2.28773377726961
O          -1.13923288002363    0.83009504652909   -0.64616476589126
O           0.07580751943193   -1.15158920502443    0.05403140400926
O          -1.94811918901483   -1.38971563511938   -1.19828065552159
H          -2.55745684340874   -1.12010705038147   -0.39067496696319
H           0.99537966298693   -0.65928685721576    0.16705655156661
O          -1.32885417365168   -1.02543039045967    2.54974218306249
H          -0.75353138628742   -1.58649012238083    2.02104815190007
H          -0.87652768621417   -0.14472742537427    2.56507495268110
O           2.64588891858725   -1.17607498544811   -2.19617345863268
H           1.71259972520026   -0.95856309944289   -2.38127264087487
H           2.75813876908098   -2.10087392235782   -2.42043726616325
O           2.24623706393366    0.09214586207053    0.12126329288273
H           2.69948132010947   -0.40450436962805   -0.59057415995187
H           1.98547205764166    0.94237630279278   -0.30856028111023
O          -3.17068269079164   -0.50018374612528    0.78224216273120
H          -2.58428835620092   -0.75763008589689    1.55463801738663
H          -2.97144290984063    0.42452871194525    0.59930353845687
O           1.15793006221705    2.03678237902633   -1.32297075404213
H           1.31859546463207    1.78409792056510   -2.23566815653242
H           0.23553495638618    1.78566016750143   -1.13879687488220
N          -0.07329775887451    1.31483997967669    2.08196639459570
H           0.92329271497011    1.15495112934816    1.99544811511803
H          -0.20387621963655    2.19531181930852    2.56345296148397
H          -0.44666858497919    1.41254694768035    1.14185800612289
