    26
        -50.45149202  Gyration_radius:  2.61379779129 Dipole_moment: 6.994
 S           0.81400378859324    0.60136704598678    0.43019317057203
O          -0.31416266988838    1.49361259566168    0.33972343317667
O           1.73456229711613    0.68139167965302   -0.66415148183291
O           0.29531300895160   -0.84195113839466    0.56252541833546
O           1.56424307540963    0.82023852672567    1.74276411043328
H           0.88644777851046    0.84966520516311    2.49686786722028
H          -0.13872000587676   -1.12383984504235   -0.38779026368769
O          -0.66333005802588   -1.35475000039157   -1.65203487318872
H           0.15496098106152   -1.36457588003520   -2.23249847812766
H          -1.13899959555883   -0.53140089548732   -1.88298940906103
O           1.56916076447369   -1.01051891830941   -2.94830169782710
H           1.36448671451204   -0.14338108831488   -3.35761559558636
H           2.10724621381059   -0.77712277107089   -2.18263320892496
O          -1.60166877351445    1.17197639400543   -1.90614741510524
H          -2.48014376446856    1.55338070415543   -1.86674134468048
H          -1.16043707693890    1.39242592417602   -1.05087868287479
O          -0.07584960749903    0.71037738450177    3.69174460243444
H           0.44093694974098    0.57425890822963    4.48910949522620
H          -0.55671518746346   -0.14623452033747    3.50517999093357
O           0.88776385361410    1.58623110096729   -3.17144450663638
H          -0.05965529671284    1.59608013698167   -2.98073409654749
H           1.32317326867059    1.57514246789285   -2.30650973589767
N          -1.16397878551738   -1.61489214472822    2.98702187555499
H          -0.92241362205638   -2.48675336522215    3.44134105749645
H          -0.70328351595370   -1.59543394396092    2.07981598087266
H          -2.16294073578604   -1.61529358245861    2.82418379800203
