    26
        -50.46652630  Gyration_radius:  2.47668737513 Dipole_moment: 5.847
 S           0.45975368267265    0.12729284245897    0.99916977033086
O           1.25840707101397    0.88409525118433    0.04348120783946
O           0.59964937512996   -1.31896668583671    0.77568010079957
O          -0.94371958420608    0.51360989358268    0.96620224820684
O           1.02348977517982    0.36369937427950    2.41683249523814
H           0.99866886316040    1.34534590726553    2.59399761852080
H          -1.92493309994286    0.20549541504499   -0.37316468320503
O          -0.21105583635976    3.06482486997183    0.37730488946624
H           0.44366808981834    2.43162054087617    0.02663365692340
H          -0.97138998347876    2.50527934486697    0.58135684594751
O           1.29550860686684   -2.39188883804345   -1.56147673873076
H           1.22446765395829   -1.98898541843304   -0.66962086005461
H           2.23221328212855   -2.48975652068877   -1.73727214726168
O           0.19638923760433    0.06876608273960   -2.27895447910572
H           0.64682638029611    0.48972214322743   -1.52180123617089
H           0.58243763049123   -0.81877139306030   -2.33286782991661
O           1.01821106603587    2.93982687163719    2.69378491826491
H           1.90858006625814    3.26963054438761    2.55497397011957
H           0.50369655432358    3.17672328493918    1.87886665608534
O          -2.20296297352215   -0.19875931422390   -1.22681916533391
H          -1.45344022219369    0.01967935907300   -1.83396075656453
H          -1.86431099713605   -1.57488136854478   -0.87237786778202
N          -1.35845568459226   -2.48187670961453   -0.47480793065558
H          -1.99265589287083   -3.12053003267162   -0.00843958878590
H          -0.63752685645944   -2.07455138756644    0.19734930338459
H          -0.83151619417127   -2.94664405684940   -1.21407037753521
