    26
        -50.45369741  Gyration_radius:  2.57645981892 Dipole_moment: 3.239
 S           0.20346350215265   -0.66839876708857    0.46632781482210
O           0.52820569291428    0.43294103328559    1.33501489414411
O          -0.52670445494483   -0.26443643585170   -0.71592513979843
O          -0.57511873031437   -1.73331023851616    1.21817882953681
O           1.49684938494454   -1.37237456117277    0.07203175679845
H           1.46015222345370   -1.76277014170128   -0.88116318290104
H          -1.46308590859225   -1.34577055117711    1.66383356544849
O          -2.92665817941078    0.69354434459704   -0.08507031098145
H          -2.03596345621789    0.42673774844189   -0.39211620639076
H          -3.54084074664881    0.40985876918247   -0.76491481945421
O           1.55305628925697   -2.13665006677919   -2.32603447154187
H           2.46367300461474   -2.33271315709840   -2.55795012164610
H           1.34608468206141   -1.23011826777337   -2.70785378437384
O           1.01757526179652    0.33545593518281   -2.88876067445495
H           1.62910821353838    0.80640415749706   -2.27685262182577
H           0.19836484579943    0.27248169795520   -2.37682503560309
O          -2.60013831514442   -0.66652870669750    2.18447586783177
H          -2.92033460909575   -0.15602264682609    1.40661461384749
H          -2.19061852433801    0.00202489428050    2.78237473771897
O          -1.14508578005167    1.28089547765586    3.25802338351733
H          -0.41100445349104    1.01685712077446    2.67127041430793
H          -1.41911602593799    2.15304412243620    2.96671779674274
N           2.37107684268489    1.38450319265223   -0.76645705231518
H           1.70938555019961    1.14691661466272   -0.03237396055589
H           2.53508275533923    2.38333231923752   -0.71967924065221
H           3.24259096545347    0.92409612277282   -0.53288705232765
