    26
        -50.44875576  Gyration_radius:  2.44334970045 Dipole_moment: 4.406
 S           0.70531564907023   -1.20681565011536    0.66367040041325
O           2.04288160953909   -1.21036892790962    0.17202520618852
O          -0.28808424013015   -1.63253405065836   -0.30573964806375
O           0.30446449770838    0.17145784178079    1.18830043156308
O           0.61372186667702   -2.09100559425785    1.91034474084378
H          -0.26900486682741   -1.86294764455725    2.32751040946774
H          -0.31255366298217    0.73711891679084    0.51425912583643
O          -2.71455223706115   -0.89476864295289    0.30073338594593
H          -1.85213806718704   -1.25587664230913   -0.01597453961447
H          -3.39876922299475   -1.46457165683707   -0.05496410534476
O          -0.21321346087677    0.09358397013298   -2.42549420948815
H           0.73179256331350    0.32693963810554   -2.48030293952946
H          -0.23942743575365   -0.73941817384545   -1.93024497926677
O          -1.20927513028970    1.34428168536861   -0.38736488148500
H          -0.87256541202531    1.01610019522243   -1.27524407790063
H          -2.03694676971147    0.86697076088823   -0.22494637125469
O          -1.64469150339179   -1.19583236362407    2.76553861265470
H          -2.19575982792005   -1.07220240620767    1.96454789574950
H          -1.40494846042703   -0.31610399627963    3.06926722841009
O           2.43827373992769    0.37913572431014   -1.95091503999603
H           3.24959464736273    0.16552982974808   -2.41461308359966
H           2.40814559561173   -0.19557857621919   -1.16181751936173
N           1.68548126061741    2.74851005066727   -0.02520876745506
H           0.70633531725324    2.93182327076978   -0.20929931078973
H           1.72632432359186    2.15045482806087    0.79142511557047
H           2.03959921690149    2.20611764392282   -0.80549306948821
