    26
        -50.44865839  Gyration_radius:  2.47409027469 Dipole_moment: 5.852
 S          -1.38629376779806   -1.12467268215528   -1.03460593268615
O          -0.30943145148074   -1.08164714463217   -1.99928052494964
O          -2.69871438173452   -1.15067888297231   -1.57153879906637
O          -1.23269600303207    0.06975978857172   -0.06099868903144
O          -1.16365748347691   -2.32287430012632   -0.09009045576846
H          -0.24791695747551   -2.17466551711482    0.28709911184471
H          -0.58493116072336    0.80420999514133   -0.40049885201517
O           1.17716183477544   -1.78904036974109    0.87790331582833
H           1.03747233014737   -1.16016934569313    1.67361852982781
H           1.58987461771034   -2.58366396253522    1.22190473201709
O          -1.34328154081024    1.20753660221184   -2.94403773128388
H          -2.28674846456064    1.04866888560557   -2.86939472512957
H          -0.93320923997119    0.32919649223012   -2.91203071495605
O           0.33407757063564    1.85846504928931   -0.90097666188908
H           1.13242252276325    1.28799503985650   -1.05533401381985
H          -0.10479597556943    1.96907291724618   -1.76348451715507
O          -0.49253376523654    2.08410612854717    1.84353237260648
H          -0.04328441495921    2.38280170421262    1.04356256218875
H          -1.27504177919889    1.61703825019217    1.53617592971618
O           2.05844043398921   -0.10245384617706   -1.21221377913562
H           1.38029028733117   -0.54871684725415   -1.74871466560289
H           2.05984852935519   -0.60397970413184   -0.38567611646778
N           0.87807047570732   -0.19103065414356    2.91492062765632
H           0.42831171459067    0.66036115297849    2.56323892458583
H           1.74914733484839    0.08570582555037    3.35100806710087
H           0.27741873416648   -0.57132459488042    3.63591200556060
