    26
        -50.45596828  Gyration_radius:  2.49337086909 Dipole_moment: 2.058
 S          -0.61851687325400    0.11179813433307    0.59728049395783
O          -0.85004833051076    1.53255812842989    0.35262757906643
O           0.37822273972076   -0.11720791372257    1.62743438008531
O          -0.24437455878391   -0.56633071391795   -0.65508711543714
O          -1.97295045231725   -0.45350856846200    1.06024829378189
H          -1.87403592696678   -1.43825403051860    1.23612682875808
H          -0.06853963914237    0.21361791358159   -1.80773920156651
O           1.23383362441771    2.49676849126805   -0.96185491274874
H           1.94203949439901    1.96568549001164   -0.53325015951984
H           0.47386359284299    2.39603415973170   -0.34935835503428
O           0.03108783492239    0.98373808041224   -2.54657056704622
H          -0.88591624242699    1.41449498400709   -2.51527620578128
H           0.65487140229660    1.66724056871079   -2.03201481869924
O           2.60723813544844    0.82534978311078    0.57788432316092
H           1.80228345091110    0.43679434401960    0.98852981098451
H           3.13170891159297    1.17298414841600    1.30163901132799
O          -1.59749290925319   -2.93677654428254    1.62332283239179
H          -1.54645346520402   -2.98001682197622    2.58061221972557
H          -0.66189883332867   -3.04349334119671    1.28580242592701
O          -2.18642749363831    2.05151472585395   -1.83534327319287
H          -2.34855395599583    2.99637762874908   -1.86754514311286
H          -1.87335570709587    1.85212603902928   -0.92043103567648
N           0.90354715853891   -2.78842230885663    0.79847665942922
H           1.76175475647436   -3.29065272594369    0.98836918664954
H           0.97306895359732   -1.85851108038098    1.20811784008025
H           0.83504431263085   -2.64390856045133   -0.20200109749812
