    26
        -50.46415472  Gyration_radius:  2.51968528959 Dipole_moment: 6.938
 S           0.58216692608469    0.01009812135597   -0.03753915093045
O           1.55749855588926    0.48019003070237   -0.99070120789996
O           1.16844747120046   -0.26116635044984    1.28799759404710
O          -0.54214348851656    0.93380994997846    0.11775469177034
O           0.02362118188910   -1.35580535369721   -0.50137248181636
O          -0.86056523396850   -1.84132595571190    2.09212856146278
H          -1.08198812233458   -2.42025592593979    1.35870250982863
H          -0.03182840000530   -1.40429936598043    1.81911542266673
O           2.09495259086265   -0.83224746002449   -3.23710875848456
H           2.71587126884953   -1.53090674689627   -3.02717870707716
H           2.00963702535372   -0.29027470969673   -2.42419286362819
O          -2.14386155048859    0.49752933467702    2.15335271388333
H          -1.95512183718786   -0.46331869674295    2.23718103929123
H          -1.81217299053853    0.72224925762664    1.25538173929485
O          -0.60064549485841    1.60445009494735   -2.45727737828058
H          -0.69283925913051    1.48478803578832   -1.49300322279229
H           0.33537973359555    1.77705409723338   -2.59450189718494
O          -0.57177063095384   -1.02009827568314   -2.92256702569044
H           0.32829282573195   -1.08518675212465   -3.30170730626125
H          -0.26776509096912   -1.26774533475502   -1.48837934856613
H          -0.77409163121316   -0.05591248785975   -2.92276336360339
N           0.11878193385631    1.29004958463064    3.05072066892203
H           0.30008912141153    2.27268211541426    2.87362817246478
H           0.36954868213713    1.03508993210866    4.00066698406831
H          -0.93212607653938    1.03788633111730    2.81439743677516
H           0.66263249984089    0.68266651998186    2.33726515774120
