    26
        -50.45596835  Gyration_radius:  2.49339448253 Dipole_moment: 2.053
 S          -0.22951010232716   -0.76681068966169    0.33471497418769
O          -1.46636133904214   -0.32101110915655    0.97000916126748
O           0.91225238378132   -0.68379390200986    1.22728594411792
O           0.01298823454703   -0.00222090017277   -0.90015641991115
O          -0.47092531103093   -2.23639415765934   -0.05317523125506
H           0.35069551640686   -2.59369260925204   -0.50905913381103
H          -0.85935680395588    1.05050491082160   -1.21320931036976
O          -3.44493231377591    0.10133404178815   -0.68815226845641
H          -4.22387974914312    0.31826849804912   -0.17215350341341
H          -2.77763487151522   -0.25323546391307   -0.05257188149326
O          -1.61788856266424    1.80686410205353   -1.25068499972674
H          -1.53817546354308    2.21111451662650   -0.27534258632726
H          -2.46290710533445    1.24794963839504   -1.21789917651950
O           1.72137071832823   -3.11130042720568   -1.07871380373724
H           2.13756177343443   -3.63554627621270   -0.39104317026816
H           2.23422879159501   -2.25385896837596   -1.12939638016166
O          -1.38494243166182    2.31426475300541    1.18561235361737
H          -1.54339807033721    1.36160776843392    1.35948172038784
H          -0.42513260507111    2.42182239706798    1.37124302391248
O           1.19298688461187    1.90156942559486    1.67067225002494
H           1.13768147046093    0.93367373744961    1.50406473517518
H           1.52522019210440    1.99703100471897    2.56537902596316
N           2.81431710314123   -0.71830693582369   -0.88947194336895
H           2.34813693629348   -0.58633574071323    0.00645480451522
H           2.30136710428677   -0.14975374526208   -1.55297290390278
H           3.75623762043385   -0.35374387861820   -0.82091526041224
