    26
        -50.46654157  Gyration_radius:  2.46945072483 Dipole_moment: 5.982
 S          -0.69642783525829    0.46849294688963    0.77029163502920
O           0.28908730898726   -0.15056898103316    1.66879433466717
O          -1.24226967430365   -0.53974998471725   -0.14115763762583
O          -0.13198493718258    1.59293018118819    0.05300853725893
O          -1.83095163858525    0.95435724221158    1.69759894127846
H          -2.50737792349000    1.40871309652165    1.12240690304954
H           1.09321674563634    0.97943244910304   -0.95456815094617
O           2.89553696369546    0.17203156447747    1.19284479162718
H           3.30406055229531    0.97439689500360    1.52044797392147
H           1.95094882578403    0.22163206334605    1.45329031650625
O          -3.58107407535029    1.96434588963750    0.07563198240978
H          -4.35435862533395    1.39691397010397    0.04754376228427
H          -3.09858902258023    1.81973244834624   -0.77934388609626
O           1.80844846380064    0.44861167131808   -1.36058733336661
H           2.46491067458913    0.35469763206894   -0.65396519219223
H           1.09726111751171   -1.05068684986176   -1.74294758476684
O           0.56797109000683   -1.86368682648170   -1.54499746759108
H           1.15388585267921   -2.25379987427715   -0.26129039532992
H          -0.27187824835343   -1.49977922175037   -1.19005708665927
O          -2.02571844587530    1.25903483924370   -1.92224005471965
H          -1.78416757180883    0.46347678996094   -1.40660992411119
H          -1.27195101785596    1.84836462073288   -1.81014568983262
N           1.48371110222537   -2.28367703740210    0.79833867084145
H           0.88772724644087   -1.52667217388019    1.25817458081692
H           2.45106679465846   -1.96938098858200    0.87580526969144
H           1.34891628791459   -3.18916238175382    1.23373271416532
