    26
        -50.45124120  Gyration_radius:  2.48110195292 Dipole_moment: 5.970
 S           0.12461496266284   -0.49068702660968    1.22751712814990
O          -0.33582008123155    0.82970884631159    1.54965841707344
O           1.12286627591440   -0.51765454016182    0.17844541017194
O          -1.03995238371775   -1.38849767157550    0.81176173146597
O           0.66692528067702   -1.17751404420976    2.47295619319247
H           0.99911184000025   -2.08310171114994    2.09710176733531
H          -1.49612653592064   -1.09355437437758   -0.10854356117269
O           0.05327090060066    3.63591707864173    0.93856768834535
H           0.03651276794420    2.83691578340708    1.47710030781484
H           0.66829904746111    3.45498488520225    0.21815065234081
O          -1.97170896153528   -0.61265918700074   -1.35899453645317
H          -2.15474639469483    0.33071495420720   -1.21155661931562
H          -1.16626620794456   -0.65787881852694   -1.93947634268636
O           0.42265907840677   -0.60467395098595   -2.46485075623764
H           0.64369264104548    0.31797724789030   -2.65913974341393
H           0.83275150527190   -0.76357291320798   -1.59880400856107
O           0.87342754940456    1.88894464899314   -1.28816638912809
H          -0.08350931302503    2.00041787829822   -1.16070346045440
H           1.14467402035024    1.20260565125757   -0.66391870236236
O          -1.78948832520712    1.93848109192426   -0.42573440490956
H          -1.88022975629179    2.88218847858248   -0.25347375979496
H          -1.40602661778485    1.57372350639679    0.39473529456846
N           1.38334078995396   -3.22625174496263    1.14294492348332
H           1.70054620870440   -2.66027233758831    0.36376341257802
H           0.54861315342058   -3.72539635930438    0.86408242691420
H           2.10256852552346   -3.89086536144781    1.39657692107795
