    26
        -50.45272329  Gyration_radius:  2.50000796365 Dipole_moment: 4.162
 S          -1.13660558916831   -0.57698001660390   -0.53149889600609
O          -1.17038537391627   -0.26275137784343   -1.92159763482831
O          -1.03984988512239    0.57510305161899    0.35329362519628
O           0.02915124742497   -1.51514024435406   -0.20645079103938
O          -2.36865464704746   -1.39492829159302   -0.15425772856753
H          -2.46439318689171   -1.31676189987519    0.85703002171728
H           0.99434068694146   -0.99006457590917   -0.27460647192587
O          -2.33982285745343   -0.96148397302902    2.33966502658275
H          -2.15774933557067   -0.02044780933379    2.25060187842386
H          -1.48430022813839   -1.38945628528058    2.60032806267682
O           0.25614125545993    0.82185105397253   -3.98600322236208
H          -0.39322763495263    0.43872234908314   -3.37401635839465
H           0.61667518487965    0.08494286703550   -4.48187458950463
O           2.11598447252973   -0.21342574284189   -0.22511507822713
H           2.10961275367254    0.07995172131785    0.70129516159971
H           1.82383286386663    0.61168832249593   -0.76136187673977
O           0.13449739628440   -1.86058807074155    2.57622966391368
H           0.62475762754630   -1.02700836458259    2.64509634081213
H           0.22633034829809   -2.14029018127229    1.65563582882049
O           0.96380920291669    0.73816360841437    2.06372620952936
H           0.19984236074648    0.74803022162143    1.44127020147818
H           0.96727080141473    1.58493643080043    2.51193245277269
N           1.05310863815416    1.82755593259051   -1.39750757836789
H           1.35339879474143    2.78814288112581   -1.28910205907214
H           0.12517879729170    1.73015498494369   -0.99690907739786
H           0.96105629609618    1.64008339825979   -2.39580313105305
