    26
        -50.46415475  Gyration_radius:  2.51972065081 Dipole_moment: 6.939
 S          -0.12802528303564    0.55606710224636    0.12235598888515
O           0.83180445821604    0.46498849438132   -1.08730659509988
O          -1.20128244006785    1.47039344384349   -0.18246316285141
O          -0.60818118594534   -0.79245618418589    0.42635221352329
O           0.72051237444747    1.02611700739780    1.23289149626233
O          -2.55861618458185   -0.71852276328975   -1.38313141808905
H          -1.91641207596584   -0.89143959710484   -0.66878302906609
H          -2.93501091203988    0.14081314725728   -1.17183726803061
O           2.80077460895329   -0.56108462828446    0.59025054774105
H           2.91114624539635   -0.51863297334908   -0.36268409087112
H           2.15199679355432    0.13878456200138    0.79432487558616
O           1.13696181731395   -2.44653624487123    1.48320934242519
H           0.40444731693270   -2.08245512073038    0.93749685181318
H           1.93781880605324   -2.00771107438421    1.11998590680858
O          -1.44907069962387    2.62859245998837   -2.56039919164771
H          -1.43332143315344    2.29496523221727   -1.63828654962462
H          -0.86461739137767    3.38743403800714   -2.57892479047317
O          -0.66909564760987    0.10424348640950   -3.07371856505037
H           0.26825031249862    0.28515322475526   -1.93408256633004
H          -1.42427663210041   -0.35928086311821   -2.64309979337162
H          -0.97687967002791    1.02618337083342   -3.18987633302229
N           0.59542995705971   -0.62660229210496    3.19986268720794
H           0.60889489421703    0.14973441184660    2.44448924768924
H           0.85087874997280   -1.52691481974620    2.60969199098498
H           1.28278609393521   -0.43405949031593    3.92149167962797
H          -0.33691286302374   -0.70777393969870    3.59219050497167
