    26
        -50.46734179  Gyration_radius:  2.42923189094 Dipole_moment: 1.196
 S           0.27228684243256    0.47415865248269    1.24615576010024
O          -1.09975865740001    0.17804136452567    0.83159357871671
O           0.59186155067069    1.88114373091884    1.06232640277777
O           1.23009975092316   -0.38601500164763    0.55608071725915
O           0.37079407272035    0.16515041713034    2.76437612116044
H           0.19254776857348   -0.80518859528420    2.81974575395704
H           0.62920584141545   -1.13361704733998   -0.85675080799705
O          -1.68585685843549   -2.29168016478225    0.31873618175443
H          -1.49321027180500   -1.32954107648033    0.45332405607881
H          -2.64107184924674   -2.36738788689965    0.28566181325883
O           0.24458896587773    1.06980659722951   -2.73578288869449
H           1.39090832558827    1.38967101511290   -1.84920668332546
H          -0.50076898614342    1.49587469007461   -2.25413446842420
O           0.19283002421432   -1.39661680524450   -1.69053679999250
H          -0.54989332841539   -1.94001933842561   -1.40626382859943
H           0.14502398835380    0.10750003592577   -2.56024653711931
O          -0.34890123389790   -2.36857410788634    2.70613488722166
H          -1.06227353759748   -2.52495016080126    3.32926020094213
H          -0.72201843340945   -2.50869113346076    1.81220148619350
O          -1.46264801973543    2.10461316558208   -0.95975227882942
H          -1.08070872058762    2.83785382472861   -0.47144725570403
H          -1.46961575429481    1.36659369084481   -0.31776312869368
N           2.09470285926928    1.50108120785832   -1.00795628195701
H           1.57245299858612    1.96495045398653   -0.21596154463448
H           2.96447137503448    1.96098129695448   -1.25217186421264
H           2.22495126733550    0.55486116490178   -0.60762258124882
