    26
        -50.45278997  Gyration_radius:  2.46770631113 Dipole_moment: 3.457
 S          -0.08617039615812   -0.51286970974626    1.52145759917101
O           0.24529119408681    0.70521611064636    0.79380826270947
O           1.00607865483940   -1.42064056086498    1.67039050889797
O          -1.27640005190149   -1.14489642153499    0.89897837303639
O          -0.55508299982568   -0.06686289556094    2.95399372943202
H          -1.28851382451470    0.53360882147581    2.77321662318364
H          -1.47710500193268   -0.96217211480536   -0.55966422339113
O           2.28503704253541   -1.45724128269634   -0.70333552848775
H           2.71697309875724   -0.57452351270709   -0.62648432040573
H           1.86275711313469   -1.58980870996420    0.16581982975450
O          -1.59538081456278   -0.61791894838151   -1.52604976064104
H          -0.67934465300822   -0.82992056750489   -2.02023784206432
H          -1.64441466583208    0.41442576691774   -1.37542534021052
O           0.59434599961790   -1.16165461028980   -2.58873421109432
H           0.59155518613299   -2.00033812982273   -3.05387899391434
H           1.28259562562396   -1.25885496206697   -1.84094987591259
O          -1.58274909261998    1.76652544940698   -0.72029268940412
H          -0.78673242976358    1.54581981779768   -0.17713658871201
H          -2.29742168411245    1.82102927861125   -0.07130168338601
O          -2.82257517416991    0.80773696953440    1.62588384949984
H          -2.39002381114382   -0.01688612056292    1.30564575072860
H          -3.66584346261759    0.54927388573875    2.00250214681927
N           2.94254380339237    1.12362751842615   -0.22448312043832
H           2.97780929631058    1.85549794763575   -0.92260065813472
H           3.62265170930025    1.34308086586573    0.49195959813316
H           2.02011933843162    1.14874612444302    0.20691855482556
