    26
        -50.45272330  Gyration_radius:  2.49998698694 Dipole_moment: 4.164
 S          -0.99361962611232    0.65322560214286    0.70246193163297
O           0.04251400735280    1.23087422245290   -0.14145350442776
O          -0.66426852176293    0.57752692495030    2.08736968698307
O          -1.33695899892439   -0.72936346739937    0.14098946023950
O          -2.28615618927925    1.44385223724207    0.51902845369684
H          -2.30367694158084    1.73953214590924   -0.45577433738074
H          -0.43832137507712   -1.35965056424328    0.05674088554004
O           0.74950736447257   -1.99622528574014   -0.16142459183861
H           1.38518702427949   -1.46951265270352    0.44874458223571
H           0.96829483730969   -1.69891374474146   -1.06034077958279
O          -1.99718088264302    2.04638920384950   -1.92279179837675
H          -2.01603341430301    1.15024510038298   -2.34668240616964
H          -1.06912487498982    2.28551534231637   -1.83237948630772
O          -1.72494713132799   -0.48644072021626   -2.62742955741162
H          -1.89427201120352   -0.85212095665462   -1.74893487981348
H          -0.76463500828782   -0.53838779911818   -2.75032204944722
O           1.02879544481311   -0.56317639440316    3.90556722288735
H           0.37205224794674   -0.05277305790973    3.40439835887936
H           0.54876143040596   -1.29238029869671    4.30138594488312
O           0.99355026040033   -0.16088172046252   -2.17249346069875
H           1.73392299497450    0.28821448892020   -2.58246427303746
H           0.69431879653050    0.40678277757833   -1.42454101427867
N           2.16520439207926   -0.36693217323321    1.25659851665396
H           1.65161006516211    0.47734998196153    1.02331341319439
H           3.15398383958611   -0.18908254885033    1.13279822058617
H           2.00149226016704   -0.54366664332728    2.24763547136111
