    26
        -50.45247188  Gyration_radius:  2.51428039377 Dipole_moment: 4.188
 S          -0.10363938271877    0.89951848299136    0.56179727335396
O           0.71644262595657    1.59930081268816   -0.37206196636564
O           0.06514771306975   -0.54288956783718    0.55564594329070
O          -1.58543547217548    1.20622883096827    0.31402071380793
O           0.16010553595746    1.42144916452126    1.97108577429824
H          -0.51636566734187    1.02734913838294    2.62624236747831
H          -1.68541317245111    1.39852552778425   -0.71318300435678
O          -2.26954494990781   -1.32164398628762    1.59449465114742
H          -2.90524197245939   -0.88536487953823    1.02165813834739
H          -1.40215320569276   -1.22290789562239    1.15760675488087
O          -0.30523479123882   -0.74834639933857   -2.20038600105723
H          -0.20311035669803   -0.93257730450589   -1.25773381872465
H           0.59398908058562   -0.45599128467243   -2.49341031729312
O          -1.55426354261918    1.51362304497685   -2.15168313083647
H          -0.82994005243024    2.13201674502790   -2.28924491804302
H          -1.16930200606520    0.60325537143456   -2.33751709076091
O          -1.51015146268040    0.29362036598624    3.51952285249336
H          -1.06180874019275   -0.22691444182252    4.19019237117834
H          -1.93233138988822   -0.35081966783367    2.89283983233635
O           2.11916330537768    0.29952100603878   -2.40582124700807
H           2.56640223476837   -0.36261700561307   -1.84044110745794
H           1.83763390623065    0.98911711438899   -1.78923831297525
N           2.77289381928029   -1.44561750098312   -0.37415964894507
H           1.89138894571531   -1.22182388082454    0.07971868835577
H           3.51800018852540   -1.22064366867831    0.27278455062920
H           2.79276879911705   -2.44536814168904   -0.53272935776210
