    26
        -50.46198728  Gyration_radius:  2.42854911107 Dipole_moment: 2.701
 S           0.30695441901724    0.80365699714987    1.30287950128019
O           1.43151864047206    0.03065046712460    0.78841998935775
O          -0.55621489301019    0.03189900285499    2.15811960328348
O          -0.42395291478233    1.41931837364595    0.18061310554118
O           0.88996096177843    1.97668683787473    2.15277807485360
H           1.38027733695007    2.50041417006382    1.49423661151015
H          -0.72807221684203    0.63422257462028   -1.12593495561715
O          -1.65935437668087   -2.02980617504853   -0.83723378383277
H          -2.29472469640213   -1.61858833941169   -0.21255417117113
H          -0.90307543149902   -2.31294964291615   -0.26974417121341
O           1.52025893632044    3.12818748068470   -0.17639100892477
H           1.20693028883118    4.02717296023763   -0.29816953837104
H           0.73762539600109    2.54577257158772   -0.26619636652997
O           0.32951903328174   -2.37786741735704    0.90365193371738
H           0.84685803215820   -1.54845244417462    0.86167517435137
H          -0.10951215882472   -2.33400068894410    1.75721222323894
O          -2.88301988911811   -0.64687359258249    1.08537022875364
H          -2.05464156053154   -0.30812786818690    1.48787544415920
H          -3.45708311120013   -0.88371844118123    1.81506461679106
O          -0.72388096324079    0.01276053700117   -1.92308835142111
H          -1.17315436355394   -0.87840829418874   -1.55816201079089
H           0.34785268878239   -0.21594785476524   -2.03781983236233
N           1.74442690147219   -0.45460932594461   -1.90186400728731
H           2.35536884196796    0.16571134281790   -2.41639145218429
H           2.02716448671569   -1.41203694364561   -2.06662588922218
H           1.84197061196518   -0.25506627733178   -0.89772096792613
