    26
        -50.46454022  Gyration_radius:  2.37454402684 Dipole_moment: 7.993
 S          -0.52353155922484    0.62869171038346   -1.28192474978987
O          -1.84722157607465    1.15967119444988   -1.14264849544726
O          -0.36571029704456   -0.66918496015231   -0.59113499183248
O           0.51196832548213    1.58563851200351   -0.60726239808076
O          -0.04116221113708    0.48638198833722   -2.65558210947503
H           1.04133362174520   -0.38959142401941   -2.43556753171513
H           0.23634642145114    1.75651973106125    0.37617447484989
O          -0.07717321404352    1.76002121046663    1.82767168775665
H          -1.06817321353309    1.65977201395047    1.83229849385078
H           0.28600304289155    0.90166187633293    2.10630667871594
O           2.77140988505448    0.16359908065702    0.00350994495305
H           2.38577385083464   -0.24432660260451    0.79498687124400
H           2.22424985973113    0.95006267428568   -0.16222429149560
O           0.83577928894318   -0.83933379632421    1.72368158714112
H           0.35545253402527   -1.47258384690414    2.26047129609087
H           0.36387844454625   -0.81565265292686    0.85617191979625
O          -2.60015319360938    1.20942764454872    1.43771867413201
H          -2.66235446017522    0.24206455654595    1.52987201736504
H          -2.52223932957399    1.35613443442194    0.47627825070606
O          -2.39636534919761   -1.48493899966823    0.93663291041327
H          -3.16569586345560   -1.68067179244846    0.39967906603516
H          -1.69034982667016   -1.22325357421342    0.31019539433388
N           1.82751487133399   -1.11154191153097   -2.10204572841168
H           2.47556962502516   -1.34173510801644   -2.84891025349120
H           1.32520138009208   -1.93305427413287   -1.77396593128207
H           2.31964896264564   -0.65377770448914   -1.27038279639546
