    26
        -50.45065211  Gyration_radius:  2.57433006605 Dipole_moment: 4.531
 S          -1.16422966727775    0.20600907642511    0.18417971700688
O          -0.19798112368023   -0.63822528487071   -0.48964617685125
O          -1.26158509384870    1.52658384222927   -0.36197692559806
O          -0.79979895409249    0.24236829418981    1.67560302342250
O          -2.54071625810356   -0.44040268214544    0.15887164009123
H          -2.53597176847795   -1.35110819715978    0.63848786134468
H           0.21806592123105    0.39569198732501    1.70578179981206
O           1.11265895879192    2.84586961320348    0.18929821439206
H           0.18409957895816    2.63133940987173    0.01241294485949
H           1.58068533467355    2.72376732543804   -0.66393694197239
O          -2.41554303466175   -2.72246572827439    1.24368685952740
H          -2.64269839638910   -3.37293359007810    0.57503203704509
H          -1.42826298707347   -2.80992685578915    1.41543971911091
O          -0.12851241702303    0.84488461630111   -2.76885509869642
H          -0.02438482840579    0.07816993639949   -2.18610159872912
H          -0.74610931563173    1.41041750584327   -2.28746073322252
O           2.14260557388989    2.16958534903363   -2.21480074866795
H           1.36909095075415    1.64784336087829   -2.52704742863324
H           2.32471772505355    2.81780592374408   -2.89648070635354
O           1.66648138646340    0.61456983809578    1.36936651275649
H           1.59903378549129    1.56157813209685    1.04020009678860
H           1.83014364735347    0.08834872393122    0.58012668632179
N           0.21087087573999   -2.70735398991090    1.43047120693698
H           0.28623686272832   -2.05889006736192    0.64819537185978
H           0.83922068085366   -3.48387791107983    1.26793702994659
H           0.52188254242304   -2.21964862831954    2.26121563790427
