    26
        -50.45754421  Gyration_radius:  2.40891286019 Dipole_moment: 5.862
 S          -1.22513408732069   -0.23743698176032    1.05960159887469
O           0.20659783079077   -0.58331643076456    1.02498772226498
O          -2.02833666789273   -1.31259590037209    1.57850113311621
O          -1.63244825760785    0.02631314314816   -0.43597260386059
O          -1.42977913578356    1.05224591614267    1.70436462859711
H          -0.74894332622319    2.08258559893903    0.99210268337384
H          -1.46806347060057   -0.80041851568674   -0.94476973335160
O          -0.53892054735229   -3.26462480005697    0.70043337071632
H          -1.19919627731343   -2.67882893333451    1.13951964539968
H           0.30844010128933   -2.90143758233579    0.97423163990533
O          -0.06690074859980    2.72263893062493    0.50184520594500
H           0.87094955939999    2.33467446230852    0.87415361810007
H          -0.08448216602527    2.48850747018360   -0.48696054894734
O           0.20803306323798    1.99545799554860   -1.94341627430756
H           0.87351599525517    2.45009988982292   -2.46198779064984
H           0.52389018314296    1.06061964380399   -1.82551107054328
O          -1.03048398120999   -2.24575745004541   -1.64863180338948
H          -0.80468838683867   -2.75156820056958   -0.81711793239477
H          -1.79361472409181   -2.68446828677218   -2.02851132179115
O           1.13360846879812   -0.41913469732063   -1.44288222873207
H           0.61448270286941   -1.08794732163292   -1.90415393973268
H           0.86337693846085   -0.50615163097240   -0.50167882601278
N           1.96338926334907    1.51365756110134    1.38096572348787
H           1.43686030178116    0.63051287352377    1.40796926286663
H           2.27659434922872    1.73217131600109    2.31719327298553
H           2.77125303924793    1.38420193047148    0.78572455808975
