    26
        -50.45931321  Gyration_radius:  2.40691853308 Dipole_moment: 5.931
 S          -0.05073628177816    0.39475798230351    1.46807882824162
O          -0.39152805247733    1.63995756460168    2.09799170925436
O           0.49027891901740    0.58221726269747    0.11387116067486
O          -1.35144571668972   -0.46823298925689    1.29192568198572
O           0.84508243936714   -0.45668748599890    2.24711371172400
H           1.34639283965092   -1.51009531057669    1.47281692821276
H          -1.99311519354679    0.06612883411776    0.70898085143521
O           1.68070909341253   -2.20652881279677    0.73256783889174
H           0.83197151061480   -2.41518724756679    0.20212514651965
H           2.29108157799909   -1.60112699759618    0.11474607897875
O          -2.74944819641090    0.84197025774826   -0.37166687265917
H          -2.31069266471344    0.49836592847946   -1.16777759702829
H          -2.39930563819641    1.75494208585076   -0.24292299654644
O          -0.75988414383854   -0.12148171425276   -2.03466261290223
H          -0.48463722690826    0.42170873802287   -2.77405189446772
H          -0.26173048886389    0.20953283194662   -1.24235093130310
O          -0.57040029295084   -2.39755420952894   -0.45647322385973
H          -0.64402598667032   -1.82570361791956   -1.23677686700636
H          -1.05332085692270   -1.92562701355339    0.24519416785820
O          -1.48657096035947    3.09585840067152    0.22471545015778
H          -1.96112706482053    3.79200408222607    0.68323368471839
H          -0.97451874208855    2.62029487908253    0.92082811527612
N           2.93400203758867   -0.48319007464088   -0.64977915424888
H           3.08390605958744   -0.56568439510047   -1.64641324246037
H           3.77345975587122   -0.11299080893310   -0.22473537202827
H           2.16560324412510    0.17235186996921   -0.47657860942621
