    26
        -50.45358653  Gyration_radius:  2.43513612533 Dipole_moment: 4.164
 S           0.98719420190764   -0.76724077255289   -0.42312225088401
O           1.38799668357031   -1.80014972053945    0.48490560202799
O           1.17803302447149    0.58386839476722    0.05627737666406
O          -0.50623873093193   -0.94892258447905   -0.74868675439654
O           1.69261060547658   -0.92298707971950   -1.76350062188313
H           1.73756605105330    0.01766590199514   -2.19241547667482
H          -0.91371912302880   -1.60815086552297    0.01676746211690
O           1.63404230592185    1.47093017164336   -2.52239360815451
H           1.81028504202207    1.81936213648616   -1.64097528573714
H           0.64886755993553    1.56734631929824   -2.65390351994849
O          -1.18742119012369   -0.46454362198818    2.84623436414285
H          -0.22851408847599   -0.41769601888897    3.04600895227551
H          -1.37938026469117    0.33408715769301    2.32109945166034
O          -1.31591751133252    1.34580210121219    0.78885573169602
H          -0.37969423201490    1.21352379982046    0.55397718246276
H          -1.81411207947641    0.74672103657791    0.22701457761989
O          -1.26036030966755   -2.36039387724688    1.11803916655481
H          -0.43900757255793   -2.83943875062235    1.27974845179708
H          -1.33334338292121   -1.67406099023821    1.86875601530501
O           1.50216662613459   -0.31254816752101    2.74836317380628
H           1.62788327551291   -0.98989959635481    2.06440295301598
H           1.68272363110308    0.52148265997087    2.30562937487971
N          -1.02776417415676    1.43180045686996   -2.50228393650389
H          -1.41000740020423    2.08322100035675   -1.82697954950032
H          -1.09862407063913    0.49672759015227   -2.11301144037343
H          -1.59526489689534    1.47349335883113   -3.33880737198456
