    26
        -50.45210235  Gyration_radius:  2.48537045487 Dipole_moment: 2.555
 S          -1.16838676129618    0.31874457013983    0.29565848040541
O          -0.48952828473214    1.51610020871059   -0.13527995289753
O          -1.37134640873829    0.16769301236647    1.69889445645420
O          -0.36050069452536   -0.88107437000736   -0.24629464930005
O          -2.51601753418222    0.21827024193975   -0.42673278361899
H          -2.35042147102407    0.54982022318163   -1.38068744525279
H          -0.43338484003356   -1.68720565530767    0.41747271738359
O          -0.56772136334542   -2.70836493188376    1.44134631859270
H          -0.09257533287345   -2.25764349244052    2.20956068645339
H          -1.49318598715372   -2.74791903486815    1.69529836982036
O          -1.79427124298617    1.12308315008960   -2.67227609369076
H          -1.04230090369968    0.52198970503601   -2.92936408271760
H          -1.39004930686740    1.93807180578126   -2.36119462817516
O           0.33454373111739   -0.40088531282810   -2.93811343174985
H           1.03570248660050    0.20776530120812   -2.63966642509133
H           0.17986433199947   -0.98309134185612   -2.18530759046554
O           0.45000992641617   -1.19155576536725    3.26919264129650
H           1.14830094473658   -0.71737883715209    2.76366077697419
H          -0.31445073934594   -0.60397417858852    3.20161129064847
O           1.78142467084255    1.45043884760681   -1.56087662416889
H           2.00228424742004    2.34391488133855   -1.82861795879514
H           0.98802912124890    1.51502537763937   -0.99326725513535
N           1.81068671593148    0.39226827369571    1.52700862421330
H           2.15490580521588   -0.05504935979141    0.68564877159660
H           2.51601112967195    1.05516295524682    1.82603184180142
H           0.98237774965308    0.91579373611266    1.26629395546111
