    26
        -50.46175345  Gyration_radius:  2.40953128827 Dipole_moment: 5.659
 S          -1.27765102451669   -0.43384097691736    0.52317412293060
O          -1.60574992926530    0.84487895645635   -0.09962740355237
O           0.05037908530899   -0.88904871481146    0.08964559990144
O          -2.30474465229506   -1.48858329825511    0.06939809482799
O          -1.33851004553380   -0.35908803180364    1.97654272632610
H          -0.25772236280631    0.46266094039116    2.54144030616968
H          -2.10907480843015   -1.62798308380289   -0.90178141702455
O          -1.80742448221140   -1.65998350162589   -2.46031282402887
H          -1.44798984258812   -0.75149211293093   -2.65565960285663
H          -2.63510604945363   -1.72588668732724   -2.94151034701495
O          -0.98050521894504    0.81814293291114   -2.67066895811402
H          -1.35110019939008    0.99296647752335   -1.78146266930983
H          -0.02290063161942    0.90003420966335   -2.54624467378729
O           0.49711358607273    2.27939373347349    0.53980614661354
H           1.09756124757601    1.95809124334554   -0.14888911087346
H          -0.38492812585634    1.92199663740319    0.28563162622775
O           0.63370742000761    0.97559651107385    2.70002369020400
H           0.66352405705315    1.62490805248157    1.89504413849629
H           1.35824725573059    0.20304872098464    2.48706593876776
O           1.52877226962361    0.60549615237385   -1.44448144174777
H           2.16277409473334    0.05302429789420   -1.90327817074975
H           0.96691693044301   -0.00450123415761   -0.90352967569932
N           2.07216844612449   -0.95944113227893    1.96721971690540
H           1.40191511704573   -1.16381405510570    1.21508108254276
H           2.09826045644774   -1.74827428321758    2.59922150735555
H           2.99206740709780   -0.82830175371671    1.56815158773071
