    26
        -50.44959932  Gyration_radius:  2.49264750612 Dipole_moment: 3.201
 S          -1.30507262491596   -0.21158675189925    1.12285502693815
O          -1.06710412079335    1.08178317032644    1.71430952513409
O          -0.13808736743398   -1.07526922095852    1.17562798268480
O          -1.76630157833614   -0.08718325941259   -0.28264854973665
O          -2.46187080208988   -0.89379515110227    1.90718475312806
H          -2.66249261198323   -1.67763331963928    1.35781413490297
H          -1.14652831286300    0.92681728415884   -1.11040669439272
O           1.61936783781108   -1.14035253061692   -0.79457217151460
H           2.30617528004235   -0.67455377703068   -0.31021376912067
H           0.89186923432767   -1.25616286803980   -0.14415701369933
O          -0.54441237651286    1.60606325617199   -1.63238671302688
H           0.09416240854344    1.97608147285787   -0.87488957184156
H           0.01491549581148    1.03679182342479   -2.27537543998702
O           0.92830495692979    0.05860147712972   -3.01388874260968
H           1.73939777586005    0.37588909972016   -3.41434378956652
H           1.18683890370300   -0.52380902185501   -2.25295290511886
O          -2.81845219186468   -2.49947189564495   -0.15755067828518
H          -2.38183551347291   -1.69415954404263   -0.49470631922098
H          -3.69316059417910   -2.52418060365001   -0.55230749463888
O           0.80476490112912    2.28944165151144    0.35408099762989
H           1.53599607457283    1.70367106541206    0.64092781100689
H           0.07417761391601    2.04908349321546    0.97223121366001
N           2.22777773421648    0.44425535564727    1.77412415538504
H           1.38707176123945   -0.13867526060990    1.76265195671772
H           2.15576829260560    1.02147306743989    2.60496862589445
H           3.01872981371748   -0.17311899253215    1.92362364972001
