    26
        -50.45752468  Gyration_radius:  2.46384419758 Dipole_moment: 6.296
 S          -0.06140096456811    0.32715422895375    1.06474395877414
O          -0.04428112152534    0.07818297121306    2.50389851630330
O          -1.02900441795418   -0.55184994439491    0.39897070268658
O           1.27108863580934    0.14122232055883    0.48796589374404
O          -0.51434743000807    1.77874830411263    0.83662118242812
H           0.05251259314743    2.22572922308309    0.10369457215541
H           1.95847708445784   -1.15691820173910    1.37318772788426
O           0.65159619393272   -0.85286140947444   -1.93221025423702
H           1.02363592332759   -0.45458167699686   -1.12365833907056
H          -0.15964423785297   -1.28177316560156   -1.64560218330830
O          -2.47241210834705    1.01525074121963   -1.22612345998308
H          -2.65413207968227    1.76753513698122   -0.65954424901463
H          -2.02246418762385    0.36558907143719   -0.65151001581118
O          -0.35791854993543    1.46586789879395   -2.89006479161477
H          -1.23438364980816    1.32982664600629   -2.47920190142253
H           0.10369425838681    0.60953547890840   -2.77821627410403
O          -0.35281794505537   -3.00553515433647    1.04291327092048
H          -0.66551418410218   -2.12008849192679    0.73337516759405
H          -1.10333379763511   -3.40585587803842    1.48539915649003
O           0.72209461439155    2.90975605439287   -1.04907113181593
H           0.38487402690480    2.37565816470089   -1.83884380599623
H           0.38443931780647    3.80042391229147   -1.16456043895272
N           1.66431331482541   -1.74626787829283    2.18676069053897
H           0.98986715369002   -1.03373011257024    2.64245053379563
H           2.42684099856377   -2.07839730403178    2.76693967058955
H           1.03822054887610   -2.50262091521598    1.81168580138191
