    26
        -50.46949752  Gyration_radius:  2.56204354784 Dipole_moment: 5.896
 S          -0.35664940781872   -0.40147560489185    0.15815051274343
O          -0.44684807480283    1.05342953964656    0.39009991854456
O          -1.64416415619261   -0.98678698785455   -0.11283876831089
O           0.56306539151492   -0.58571114028135   -1.08285563364985
O           0.37306840389025   -1.03788334297883    1.24953080042752
O          -2.28067925012872   -2.10844658119252   -2.43851155294391
H          -1.96644155680689   -3.01336032276834   -2.42692798131341
H          -2.14690617173287   -1.76181704466860   -1.53146328542154
O           2.82811597323930   -0.42650496655035    0.50854847796745
H           1.98917239388062   -0.84933973080179    0.80139907383255
H           2.78995912672680   -0.47440849835914   -0.45069163087442
O           0.87970101333285    0.04573152853580    3.61015509449927
H           1.40741304452595   -0.58802164089310    4.09949059986183
H           0.53938966916339   -0.43845710160969    2.82455523453597
O          -2.42139184359350    1.44653631418152   -1.36361609446662
H          -3.02058973955179    0.73711223080002   -1.11364706203230
H          -1.74164183449714    1.45479461557444   -0.66479023973653
O          -0.85700103429841    0.09607366709776   -3.05020388669303
H           0.03509449656520   -0.29378209830646   -1.91797337143131
H          -1.39728429235469   -0.71534178616064   -3.13109781336495
H          -1.45489907310590    0.75025951555990   -2.61996997619828
N           1.69213604259396    1.66121237025732    1.66068269851458
H           2.37426400587457    1.01568930911901    1.18380059415374
H           1.49520720327312    1.25447989974495    2.60511530792118
H           1.99977900083874    2.62624239349608    1.69942864411014
H           0.76813065945383    1.53977544329212    1.11363031931654
