    26
        -50.45301852  Gyration_radius:  2.4621973667 Dipole_moment: 2.638
 S          -1.02352701234100   -0.39849299278676    1.45828851686989
O          -1.22055808449795    0.42575695138679    2.61027074001137
O           0.35470511917287   -0.53236329021789    1.04731745371440
O          -1.84671118668457    0.15640753123566    0.27426739434073
O          -1.63409322011321   -1.77278832660969    1.69006252251934
H          -1.51247517208177   -2.25282766933230    0.79733583766555
H          -1.30526961243629    0.65764940981176   -0.41457928987916
O          -0.14014401982127   -1.21472792304577   -2.31119655612065
H           0.79684992431506   -1.22282039096441   -2.00212279440005
H          -0.41552214131245   -0.29319763587189   -2.25562992085368
O          -1.18606684199729   -2.84035757331173   -0.55599060466959
H          -0.48513633847900   -3.49140099233739   -0.47982737533642
H          -0.87957823353981   -2.19253523834495   -1.25585336233692
O          -0.48888938124727    1.49970118656035   -1.44066852888740
H          -0.93416527590047    2.34277871931903   -1.54864612899970
H           0.33297551657225    1.67986200477266   -0.89022471422195
O          -0.47756459664389    2.90554680520763    1.93729250058924
H          -0.82187568680212    2.04044963106670    2.23718575169939
H          -0.39967994619117    3.44621829739323    2.72540627551326
O           1.39147133712235    1.84061164672062    0.30291032320735
H           0.89114632519621    2.42896632559569    0.89988657489217
H           1.23978739915214    0.94848395265780    0.66349306822625
N           2.26975887382684   -1.10310887749847   -1.07970951132859
H           1.78332922520092   -1.07507976029726   -0.18731393590721
H           2.69924843063176   -0.19489906756710   -1.20925782453287
H           3.01198459889696   -1.78783270354373   -1.01269640176918
