    26
        -50.45209798  Gyration_radius:  2.55785214908 Dipole_moment: 3.554
 S          -0.91032726537068    1.08483903210627   -0.84495570018535
O           0.04492788014651    0.43203599335960   -1.71908915176624
O          -0.47187599496464    2.35248919257315   -0.35334720539460
O          -1.26788005565590    0.14189473114032    0.30399954339214
O          -2.24376597556512    1.23808393460214   -1.58373224602450
H          -2.53774213691908    0.29074929256520   -1.77470252531537
H          -0.42130013173343   -0.39842252823982    0.65224373009991
O          -0.33164137631049   -2.18185211092642   -1.38399012997434
H           0.00336148530931   -2.32977847625343   -0.49426368757343
H           0.00022541606206   -1.29997422967507   -1.63497501726874
O          -2.72954162638102   -1.23874884624277   -2.04233389536475
H          -2.76429844654723   -1.41264835966748   -2.98611426812559
H          -1.92333094326705   -1.70581695727611   -1.71091157640022
O           2.54788617056629    1.47334795451663   -1.82017149696587
H           2.42376823561315    2.36440695452634   -2.15229736966177
H           1.69079154635155    1.02390961012539   -1.93027568987725
O           0.77338698177389   -1.00001549141416    1.12202719872979
H           0.62584707657212   -1.03013547920310    2.10321130138872
H           1.35451099405980   -0.20317475305834    0.98933639349018
O           1.82875135332728    1.37028179060239    0.78479511540416
H           1.03940869364326    1.89204814163733    0.56903349776666
H           2.36001679599022    1.38784651819772   -0.03591566024152
N           0.28703057785298   -0.65939377039579    3.74237410756883
H           0.82538002865255    0.17491059565499    3.94213542197716
H           0.49108736067740   -1.34751026704911    4.45570272868299
H          -0.69467663388011   -0.41937248219974    3.80221658163404
