    26
        -50.45938500  Gyration_radius:  2.45584986083 Dipole_moment: 6.628
 S           0.55778835697273    0.61369782337486   -0.34908954145317
O          -0.34792945190114    1.47073194659044   -1.22617884434440
O           1.82660145075197    0.45340795191300   -1.05434058110387
O           0.74386289380764    1.26088325816718    0.94868511367838
O          -0.07225999891043   -0.70525519564518   -0.15997578744266
O          -2.68400375473455   -1.22142048894712   -0.84216317012476
H          -2.44347946500094   -1.33419554055924   -1.77109870469863
H          -1.83508137944820   -1.23662508941890   -0.37148484556822
O          -0.60152305772125   -0.96616636989792   -2.82599243759987
H          -0.30298697529906   -0.89975857924591   -1.90662317684739
H          -0.47231819707526   -0.09108730983156   -3.19745499650368
O           2.55694473284329   -0.10651374967144    2.27271634394792
H           3.28753030117488    0.49783060512540    2.41720731396263
H           1.83374256266172    0.44043905339498    1.87756698265618
O          -1.62904214398378    1.50446216673393    2.10323595384061
H          -0.72383678101680    1.37450660154127    1.74756484567979
H          -1.61780635312334    2.34822938386511    2.55870255048852
O          -2.67410940245090    1.38483279918970   -0.34767216241100
H          -2.49548010583946    1.43354318318509    0.61834573224714
H          -1.35643704167343    1.48657054551082   -0.87968325748720
H          -2.90041883488408    0.44015265890309   -0.53368399193683
N           2.30748264183375   -1.68780042044548    0.18643864302212
H           1.27485004537268   -1.80992214405929    0.20236750745723
H           2.36176321537172   -0.84837418462977   -0.49861147691887
H           2.58615519275609   -1.28319731593862    1.11938752969273
H           2.81999155947339   -2.51897160921632   -0.08816554222541
