    26
        -50.45301769  Gyration_radius:  2.46066386738 Dipole_moment: 2.638
 S          -1.13319779280312    1.27865109344142    0.64583226917816
O           0.01450442375931    0.53477639280336    1.11047812774478
O          -2.32950072619614    1.05117033354528    1.39585525313850
O          -1.37890725286505    0.94071187824606   -0.84172843734573
O          -0.81253073657845    2.76558706216719    0.61364779092027
H           0.00046370000504    2.83084838939294   -0.00044532196970
H          -0.99858711564079    0.05397857253732   -1.13865201614679
O          -0.48029505994482   -1.34576108301398   -1.58499878660711
H          -0.34521727834176   -1.76889551010674   -0.68326450519737
H          -1.21240193149632   -1.81039686234480   -1.99596940663022
O          -3.00345102090201   -1.51092605540111    1.02749440411720
H          -3.68681461684556   -1.76111443843392    1.65190521089529
H          -2.85358383881299   -0.55370595759063    1.16187589563054
O           1.23769906471951    2.73953358639438   -0.86308752801022
H           1.38969032508873    1.86318440055626   -1.32359649193401
H           2.02582096040645    2.89744093763887   -0.33877049862789
O          -0.37458938254602   -2.12141816420095    0.88144059665873
H          -0.12145571746769   -1.22573748985411    1.16914855494663
H          -1.33887243870469   -2.15684688534605    1.02703049087243
O           1.79397542013615    0.39023608889593   -1.85869121173858
H           1.04337738040055   -0.18079704152648   -2.05495227748027
H           2.22995704894532   -0.01795691099253   -1.07327711430507
N           2.61775552082843   -0.64002512960924    0.50686305592237
H           3.45980064984712   -0.47688376546204    1.04403168362939
H           2.40384020144660   -1.62861990927943    0.56209320512989
H           1.85252021356469   -0.14703354246119    0.95973704720929
