    26
        -50.45301823  Gyration_radius:  2.46193933692 Dipole_moment: 2.643
 S          -0.81177143877998    1.07584223697795   -1.23161086403792
O          -1.36881840297987    0.66350157826351   -2.48258212024964
O           0.51064756946500    0.55881677080659   -0.96643867527950
O          -1.75226369692426    0.65730372818688   -0.07931033050379
O          -0.80591586589456    2.59446124633387   -1.13876773183366
H          -0.46711033994600    2.78398413559332   -0.19455092313249
H          -1.44716632786631   -0.15466007519374    0.43678964462166
O           0.44276411003674    0.64675715064262    2.49371098179051
H          -0.19115550189706   -0.05332257805418    2.30362523575323
H           1.28935675335608    0.34551344095944    2.08617866549335
O           0.49768791576709   -2.12943836834485   -0.79229400674747
H           0.71574819710032   -1.19558680901435   -0.96388512253960
H          -0.21848948855595   -2.32900280738467   -1.42477508442835
O          -1.69415543754002   -1.98921762272557   -2.36542950659234
H          -1.87188111997711   -2.33372861293866   -3.24242056636474
H          -1.66048457756585   -1.01624572955861   -2.46047443754787
O          -1.02221100095832   -1.45188777332319    1.18861250819239
H          -1.77255595343136   -2.04994306763769    1.18972214620466
H          -0.36451308715739   -1.82100808467299    0.52394664582964
O           0.11766020831534    2.88857419078675    1.19491280310588
H           0.14621303251874    2.03951316842843    1.72562942597429
H           1.02423637740220    3.20092991407914    1.15576630627818
N           2.55248672440607   -0.15233685123319    0.99466112915178
H           2.56840594993810   -1.16130573417989    0.90574864132171
H           3.51017942205976    0.17391605601967    0.96937072743971
H           2.07310595910696    0.20857048718174    0.17386449809181
