    26
        -50.45077898  Gyration_radius:  2.53329649914 Dipole_moment: 7.704
 S           1.34737735422165    1.03426060892097    0.72913591487908
O           1.78013411304003    1.90149748453919   -0.31234943369744
O           1.06337317738886   -0.32843623194951    0.32794364800850
O           0.07153275528133    1.59836304208518    1.41502195101779
O           2.33532891708730    1.02071812532792    1.88895442462109
H           1.93432019777892    0.31348095888799    2.53274357562602
H          -0.69889114965282    1.61375468290932    0.76228591567580
O           0.75677496078440   -0.84305220906333   -2.41981533911250
H           1.04911840234019   -0.77271180590096   -1.50044355259644
H           0.51376220073015    0.07072760506991   -2.67240093201463
O          -1.53734752844255   -1.12028790348005    0.20991174853936
H          -0.57552837613645   -0.99309765571338    0.27911133894147
H          -1.67000888970822   -1.58883973209958   -0.64770472870444
O          -1.85928630474775    1.38439122599308   -0.25226601927244
H          -2.71416523546495    1.70463662687547    0.04209004709560
H          -1.86824252305244    0.37889139009603   -0.13436610803808
O          -1.51711530585857   -2.18515311375984   -2.22453510489160
H          -1.34361799582478   -3.10394396513627   -2.43138029066111
H          -0.67977178541790   -1.69554818117913   -2.42768810676526
O           0.00695211094987    1.76090957053152   -2.41873028197578
H          -0.78754948029550    1.74881031822753   -1.87164297197274
H           0.73526843747264    2.00241529840952   -1.82709242807273
N           1.07998375505710   -0.78859666354730    3.17966484656806
H           1.49662914946349   -1.39569868580695    3.87315581589116
H           0.85459523676172   -1.32470979249504    2.34943773165675
H           0.22637377625495   -0.39278097773351    3.55095833925862
