    26
        -50.44731480  Gyration_radius:  2.59794417252 Dipole_moment: 1.925
 S          -0.93756223291861   -1.08364236135428   -1.13204677610704
O           0.38789413726064   -0.54980607365725   -0.90218352292162
O          -1.35299241209266   -1.01588523925759   -2.50150682565651
O          -1.93765641019402   -0.30939559740586   -0.23318627460692
O          -1.04569636825011   -2.49921351079325   -0.62092005310147
H          -0.86287619041884   -2.54013606217715    0.42585070673253
H          -1.93665326114057    0.65259866696292   -0.49827290756697
O          -0.50861007183132   -2.63891957988127    1.79676853050663
H          -0.28569334559628   -3.55404890106962    1.98195669069229
H           0.37709934812524   -2.09581293593578    1.82990719691608
O          -0.27358513931264    1.33934806935299   -3.07606058375978
H           0.61819529117280    1.23565580112432   -2.73239794485194
H          -0.65537392229738    0.43931406030084   -3.09980704278113
O          -1.81206160075979    2.12598451508586   -1.11872827628936
H          -2.65602167782054    2.43721866361645   -1.45204788425125
H          -1.23308783472680    1.96620983303951   -1.91581230302377
O           1.67549638976872    1.43312292419121    2.61926132909850
H           1.32783056039227    1.68809062741465    1.74043394257095
H           2.27854954912212    2.13073694984381    2.87821992989382
O           0.77036483622008    1.94517975857433    0.10353619032304
H          -0.10640280321553    2.32785643149413   -0.00145182776361
H           0.70708289719411    1.04111029764320   -0.25145052466407
N           1.67117783855147   -1.29448456388516    1.62051127165165
H           1.67226419215555   -0.44453983378099    2.18307920842138
H           1.53581767794622   -1.01030632912420    0.65306926017548
H           2.58250056270955   -1.72623560029031    1.70327848038747
