    26
        -50.45256315  Gyration_radius:  2.52781996708 Dipole_moment: 1.440
 S           0.42941343639312    0.12072914010409    1.10381843246861
O           1.05086534409819   -1.13481254409552    0.76093834253550
O          -0.28076575279871    0.10267589816549    2.35117390167788
O          -0.51606928573494    0.54716886401279   -0.02756473254808
O           1.50196248529728    1.20259797266501    1.09087637954170
H           1.13069303055737    2.08809655376894    0.71223272635685
H          -1.30395691543104   -0.15762028599801   -0.14807854613081
O          -0.43648539855519   -3.10825736593731   -0.25352999303306
H          -0.58152502975467   -3.73732967710253    0.45629323452224
H           0.22220841472023   -2.46937651000527    0.08448868926406
O          -2.27593506461845   -1.19366927616212   -0.22459571169893
H          -2.54638411036443   -1.30767290244365    0.71647033544193
H          -1.72131630103111   -1.98498119929197   -0.42318942417191
O           0.71995968352988    3.32097817727532   -0.00608168896444
H           1.48065727370710    3.89777247318669   -0.10815683312848
H           0.54214337713785    2.92206736654646   -0.91193660483827
O          -2.46302140276853   -1.39302707130618    2.41435702248725
H          -1.62547904921647   -0.89167564275612    2.51616968679318
H          -3.10988908039256   -0.93881096817247    2.95714080558096
O           0.39278569554192    2.05688949936323   -2.25140844123922
H           1.04374884833385    1.31728048288046   -2.11888793574253
H          -0.46732236637290    1.65490615885326   -2.10505692609624
N           2.04842356755231   -0.00896629808396   -1.72210065475038
H           3.02404486284710    0.24330536504282   -1.62280327080477
H           1.99549333621477   -0.75209161143006   -2.40865402079177
H           1.74575041111610   -0.39617660909153   -0.83191476272845
