    26
        -50.44731483  Gyration_radius:  2.59790841686 Dipole_moment: 1.926
 S          -1.18094685453592    0.82767702491573    1.12046290722090
O          -1.70174709381795    2.15533020547187    1.25662755462215
O           0.22284372366438    0.78978096838628    0.77044499376997
O          -1.97493365089734    0.05273713126962    0.03575956630344
O          -1.44694197002785    0.02922279524095    2.37285540519862
H          -1.17999100359451   -0.99112996077865    2.23694090736775
H          -1.85783295936019    0.51097173727260   -0.84293080381170
O           2.08926829548684   -2.16637349103045   -1.63237212466063
H           1.70619993852705   -1.27505735001460   -1.76264436525768
H           2.80796787474749   -2.24051725553378   -2.26117030406386
O          -1.57682894510123    1.42907721450909   -2.12704432991461
H          -1.09991239600907    2.20773034386167   -1.72408863006437
H          -2.39322004509397    1.77058173681166   -2.49736769368422
O           1.05011935368665    0.34558597348651   -1.77943846514514
H           0.82555682145020    0.50162893049183   -0.84533282588994
H           0.23219568489622    0.47746065817134   -2.26912446900523
O          -0.72389471862050   -2.33018131923994    2.12082595299487
H           0.23038909084267   -2.19930180849982    1.72995649006797
H          -0.62009633931347   -2.68784358048038    3.00555911780473
O          -0.34775432880834    3.26592651077163   -0.73716067021687
H           0.54642472310380    2.95973774286963   -0.56153219841294
H          -0.85653239252668    3.08092277977699    0.07725724982167
N           1.60280118734767   -1.75462828269561    1.20159285891215
H           2.44596839497176   -1.87232239570016    1.74837345176086
H           1.42459329221320   -0.75874939549666    1.09424914094318
H           1.77630431674220   -2.12826691382652    0.26930127336811
