    26
        -50.46072714  Gyration_radius:  2.44929222519 Dipole_moment: 6.401
 S          -1.72501511476362    0.65408991085466    0.34373703252632
O          -2.21747438805156    0.75489031307207    1.68653693210511
O          -1.12349606327133   -0.68211089045803    0.10489690965212
O          -0.71654068009414    1.67758263377490    0.02054157361055
O          -2.89175053878633    0.82749655643813   -0.65425528447427
H          -2.49371994042413    1.08021500809518   -1.53451137020168
H           0.47758866063428    1.42431722220350    0.78311977903641
O           0.98751817868056   -2.42815005949214    0.34624109407796
H           0.14966478205368   -2.02074097253865    0.07034508809607
H           0.92923788894629   -2.49211000113111    1.30398692803547
O          -1.77966848368758    1.26786768061690   -2.96697561123759
H          -0.91749229010510    0.83812699797627   -2.76207693490833
H          -2.21532605236553    0.69933566185226   -3.60613557038209
O           0.23936488535434   -0.23591758450646   -2.13261344756671
H          -0.28806805809073   -0.44444702222875   -1.33455603838604
H           1.11621901354758   -0.00585142865091   -1.80793043529823
O          -0.17368825741858   -0.82204817082862    2.56813799036654
H          -0.62227726807022   -0.88587281057653    1.69388224750954
H          -0.84983306925660   -0.41012475694377    3.11595156131990
O           2.62232784693900   -0.49011197432409   -0.41483105212958
H           2.06252667964203   -1.28009590896635   -0.19931316429738
H           3.47245886157366   -0.82784863686428   -0.69787395455726
N           1.32178361197764    1.05729639004632    1.39192509181015
H           0.88781524408162    0.33990482392748    2.02656377417345
H           1.75897415904432    1.81317739383013    1.90633184662984
H           1.98887037191722    0.59112960491096    0.74887503450197
