    26
        -50.44813702  Gyration_radius:  2.48521319467 Dipole_moment: 3.205
 S           0.26599284526264   -0.79908030689932   -0.12668500060026
O           1.52941528056470   -0.60954696479431    0.56810246927838
O           0.40683334498987   -0.83366373537199   -1.55169462540581
O          -0.68505957970632    0.29971918647045    0.31860615680985
O          -0.38669742231852   -2.08289356322902    0.37048994235998
H          -0.91771852218842   -1.85517504489277    1.22369760710636
H          -0.43852919817152    1.28088454151512   -0.10848242879627
O           0.04032335743721    2.43639077800177   -0.66601087007803
H           0.07362000224830    2.22639202097240   -1.63272094507623
H           0.98070337624605    2.43016211250187   -0.36761908087180
O           0.86470434979980   -0.42056128946777    3.12723556366149
H           1.19158850705359   -0.45456280053778    2.20380609096355
H           1.39183831852982   -1.04941716365311    3.62424360999912
O           0.47626288724326    1.39368385623488   -3.05252000799824
H           1.38252908330843    1.48131799568093   -3.35536302477515
H           0.40417144482277    0.50123315923715   -2.66542875349309
O          -1.56621313883306   -1.25950527049171    2.44145467798220
H          -0.76429717763666   -0.88774239483508    2.87967502885242
H          -2.02951020201593   -0.51359466202618    2.04581512508456
O           2.49808172427979    1.84150168019405    0.13602030903803
H           2.83731228559374    2.14523813688286    0.98035230727738
H           2.28125235315831    0.89467830937529    0.25147002086074
N          -2.58415310778123   -1.33910676869364   -1.51105680413301
H          -1.60617423639819   -1.13528168228655   -1.67498099652919
H          -3.02509393321702   -1.45478339598205   -2.41626072173257
H          -2.62118259247120   -2.23628673391283   -1.04214562973960
