    26
        -50.46220845  Gyration_radius:  2.42250011963 Dipole_moment: 2.967
 S           0.90597088896664    0.66009002647945   -0.56761067777785
O           0.81328135573421   -0.33956980403572   -1.62305381762398
O           1.48487618759064    0.11017563836627    0.65023911842320
O          -0.41574326476179    1.23882639030925   -0.28502528671090
O           1.81422740230292    1.79517832495076   -1.09036464772340
H           1.93875441872247    2.37087502251220   -0.28156133055175
H          -1.61794640245375    0.45819169559382   -0.66521580904364
O          -2.36033898528347   -0.23710731188994   -0.86195286404739
H          -2.21000849774708   -0.99380987655338   -0.07547220821189
H          -2.07840754095474   -0.67979858236442   -1.73585292818703
O          -0.61443492156798    0.08613644800088    2.25698697020460
H           0.23650517811062    0.03347108430345    1.76987268469067
H          -1.05535437341811    0.85191655990134    1.87653705718503
O          -1.25629442316361   -1.35236859140653   -2.88351193882328
H          -0.40637966762219   -0.92978150533426   -2.62829478162873
H          -1.12130589297631   -2.29789583660731   -2.78101232482788
O           0.56347724949813   -2.52002602004321   -0.14207016599569
H           1.21454532777234   -2.41430432341527    0.55610439519148
H           0.73620503805552   -1.77129845440403   -0.75017974791052
O          -1.77509474078028   -1.86282270052637    0.90934658672336
H          -0.96044764867792   -2.28085866410548    0.53278193873095
H          -1.43872360379595   -1.24013467992474    1.60303692721138
N           1.92543059469809    2.84044771906352    1.29373677765473
H           1.91897563053501    1.87284626334991    1.60313562387721
H           1.06127538488446    3.27775153759024    1.58490065822510
H           2.69695531635609    3.32386963019961    1.73449978092588
