    26
        -50.45132300  Gyration_radius:  2.44406560053 Dipole_moment: 2.636
 S          -0.42827871101439    1.47144727290124    0.43922526760667
O          -1.21689521785620    2.13068841586655   -0.55647890714663
O           0.93902066159352    1.22835785965325    0.02929561738313
O          -1.08936795244888    0.13458017884588    0.83793802407744
O          -0.44116904360276    2.24023638928495    1.74669798617103
H          -0.11162110731783    1.57877440534941    2.47901806795644
H          -1.50798187740876   -0.36733143292694    0.06915612441884
O           0.38203022168441   -2.27541171802989   -0.64409968126823
H           0.75204828235640   -1.66587512237625   -1.29703038918820
H          -0.57037526224016   -2.24231957523121   -0.77455891463832
O           1.20982610732760   -0.05341740412385   -2.25278590972254
H           1.16240940077235    0.45823344823068   -1.41373505066788
H           2.04292691534697    0.17679827578219   -2.66713214793821
O          -1.36987199666150    0.67687616896569   -2.83278286671086
H          -1.39161742503161    1.40226333824431   -2.18304639247219
H          -0.43509607806814    0.41556943892062   -2.89836966868251
O           0.45548133999477    0.60537338759811    3.42290893384981
H           1.18945935577503    1.01559241832865    3.88634424438264
H           0.85712871073409   -0.11357916780517    2.81636406046813
O          -2.20526932643492   -1.07833893930352   -1.13301316372554
H          -1.94716826173928   -0.47351922938358   -1.89467654996756
H          -3.15802113376385   -1.01403639144521   -1.04468721508960
N           1.61174344029666   -0.97024806290485    1.70962308180634
H           2.51098320826378   -1.40438564703674    1.87770820857430
H           1.73674256622762   -0.21925967643063    1.03490643030808
H           1.02293317323064   -1.65706864097663    1.24321081021462
