    26
        -50.45278149  Gyration_radius:  2.51274956776 Dipole_moment: 1.916
 S          -1.17364973124770   -0.05874408405045    0.10440828273177
O          -0.92624997410299    1.33165368605775   -0.16371619230089
O          -0.05091063085333   -0.92337358257790   -0.16223671706346
O          -2.39141407639650   -0.53820736549701   -0.69665245938538
O          -1.61898844525731   -0.19859244737000    1.55194566036881
H          -1.27729319525013   -1.06883150169965    2.01140684951105
H          -2.19811789803389   -0.37682385331978   -1.68443193791363
O           1.68790909107352   -1.48842597674997    1.89208445119664
H           1.42096546312296   -1.60743287181582    0.97134235055575
H           1.69069186807302   -0.50792201681803    2.00117876842875
O          -1.70612826471108   -0.19080847126924   -3.11738802956828
H          -0.70564598205275   -0.16986060614081   -3.03899531185162
H          -1.91681074993290   -0.96500765113520   -3.64443327290091
O           0.83955657702548   -0.23933725511080   -2.61408132767331
H           1.14393813696200    0.66707150448196   -2.41410866659663
H           0.70462172823419   -0.64832164923108   -1.74209086564476
O          -0.64823263644528   -2.16211451567482    2.76294539813394
H          -0.69967249353320   -1.96867465527759    3.70198342500952
H           0.31180438165543   -2.01462527027051    2.48969843178606
O           1.13243077091190    2.27362873852076   -1.61092163639640
H           0.80144214603578    2.98183069122937   -2.16627094214278
H           0.38655415260991    2.01170439385436   -1.03742841101333
N           1.35661206761724    1.20614052236247    1.74395529106325
H           2.02748756504238    1.52824785448254    1.05506571434005
H           1.36426472542300    1.87325267210575    2.50622207073565
H           0.44483540401765    1.25357373089099    1.30051906656819
