    26
        -50.45938500  Gyration_radius:  2.45577699679 Dipole_moment: 6.627
 S           0.41516407084637    0.79547017752992   -0.06884320799319
O           1.15626038140511    0.36696811576215   -1.25410160639834
O          -0.69882206907246    1.75288157247603   -0.47690024058011
O          -0.18394772716751   -0.37754659580325    0.59260446975118
O           1.27680226442593    1.50247387002072    0.87489268637013
O          -0.52602005654309   -0.87877611773045   -2.87930659195995
H           0.14698918218137   -0.48764559445866   -2.28193837873854
H          -0.26855055261391   -0.63117229633463   -3.76920258984214
O           3.23888651214339   -1.01510080536268   -0.43991405264000
H           4.00962486817300   -0.52781306988343   -0.73719667213319
H           2.46182440843773   -0.55584557987066   -0.84433294408421
O          -2.88057559399149   -0.90478812053574    0.53758916313180
H          -1.91789259727749   -1.02974961744947    0.54394707265510
H          -3.04309430624127   -0.26931082019984    1.24696512193123
O          -1.75786812605862    1.18008130802902    2.19027352583744
H          -1.11101859093448    0.65655501394775    1.69402635162463
H          -1.72278044815103    2.05742652586691    1.80372817139439
O          -2.47445880690632    0.49245217307447   -1.68056345030163
H          -2.82760634201580   -0.06556559629117   -0.94427428275590
H          -1.47842065133222    1.26595929003058   -1.01771473690860
H          -1.91922686637879   -0.10598572215361   -2.22925628001727
N           2.05155110120324   -0.67510902708796    1.88171857971268
H           2.34505603328500   -0.90915810011878    2.82405312537971
H           1.10645795415881   -1.02851647943222    1.62971436118792
H           1.88968885233276    0.37890219840087    1.68272120671249
H           2.71197711610136   -0.98708671241184    1.12131119866137
