    26
        -50.45132298  Gyration_radius:  2.44403869166 Dipole_moment: 2.635
 S          -0.26631518445216   -1.35657632761061   -0.79389000378551
O           0.92450702905938   -2.13142374969767   -0.96571701891758
O          -0.25434455128055   -0.10504139161318   -1.52199647808268
O          -0.50257398772702   -1.07518926941389    0.70550310753702
O          -1.49951539986499   -2.15543251275527   -1.17037560030781
H          -2.31101737657002   -1.65594977518701   -0.75280504612280
H           0.33834946731598   -0.88627043433929    1.23023950696141
O           1.83141020898497    1.43267524460671   -1.06489284802482
H           2.00695935942919    1.99015413644279   -1.82459744914782
H           1.05136955089022    0.87954730559226   -1.29649733428167
O           1.66689510270091   -0.66944271224796    2.02081781928326
H           2.34382722461193   -0.69506341772140    1.27675354728981
H           1.84510853941807   -1.42951315989962    2.57774431250534
O           3.11672765382847   -0.79563498186937   -0.11220047524093
H           2.91616089789062    0.07227553818691   -0.50322212787769
H           2.51703726128788   -1.42380185246355   -0.55333229304904
O          -3.39940662251152   -0.83041536662010   -0.21042578263079
H          -2.94546237505377    0.06245541051141   -0.00364699065371
H          -4.03572478876819   -0.66006132468534   -0.90886825922670
O           0.45490147581988    1.88401265705276    1.40728078457679
H           0.84288977658412    1.19404446937135    1.95373557938778
H           0.99677269907211    1.91311457893498    0.60712722681921
N          -2.11116514434432    1.41603207831050    0.01075202233970
H          -1.51870837830703    1.53008056491801    0.83048507459596
H          -2.53105277209993    2.31568575883290   -0.18866076419570
H          -1.47762968590374    1.17973853338039   -0.74931052972833
