    26
        -50.45474211  Gyration_radius:  2.44818873499 Dipole_moment: 2.043
 S           0.03487576269662   -1.30530630486253   -0.85021021556684
O           1.12775044538779   -0.49318713334959   -0.35492513319356
O          -0.25966284814746   -1.11888284278195   -2.23491470531700
O          -1.22410144098128   -0.99997615083724    0.00261918155147
O           0.29692778109926   -2.76176651651687   -0.52979251154186
H           0.71878076697755   -2.73996893242566    0.42323931933998
H          -1.52707370302044   -0.03521630795848   -0.12973902281085
O           1.31829598869453   -2.37590331689168    1.71489828244720
H           0.58118602494446   -1.97947149913059    2.26701802366159
H           1.86286923509602   -1.63092647685363    1.43872323942171
O          -1.96140796501718    1.39557653891774   -0.42805694860563
H          -1.50279637774085    1.56290687773045   -1.31284655112890
H          -2.90347891717937    1.42590157418920   -0.60882658859230
O          -0.72658037302864    1.51147236164420   -2.68067816646065
H          -0.64085178385409    0.54917049180450   -2.79630392322156
H           0.18050768279667    1.81470523214116   -2.47595962058037
O          -0.66043280111998   -1.08850018919714    2.82412394064348
H          -1.35522591739621   -1.28338213785507    2.18894262666316
H          -0.37041766346901   -0.16375858929730    2.61173124654448
O           1.83367043600773    1.65745503033270   -1.82732193500783
H           2.49585614812909    1.38046610443277   -2.46284215417152
H           1.65986608356151    0.88457194962257   -1.25826612756884
N           0.17124780450053    1.25954460091190    1.80579028348316
H          -0.61038148959563    1.73706780989830    1.37165611529226
H           0.70814377053221    0.83781645649838    1.05293426018112
H           0.75243334014072    1.95959135986667    2.24900708458728
