    26
        -50.45940416  Gyration_radius:  2.54073740748 Dipole_moment: 3.052
 S          -1.36774760059739   -0.36693786588366   -0.17524782518618
O          -1.39745024766819    1.02856554609243   -0.58630504534226
O          -0.58976818306214   -0.54386121661714    1.04918282462370
O          -0.84264349974994   -1.21701964832543   -1.25088980651730
O          -2.81223211540763   -0.83086288588306    0.13645931073007
H          -3.27037824904012   -0.68024708110640   -0.73653193664769
H           0.61081897206712   -1.11738458745245   -1.36571988999112
O           0.71765994753180    1.52267767585990    1.97520330370329
H           0.12318103505073    2.12170663979714    2.42858485665025
H           0.16357272556773    0.75277966161494    1.69066355230332
O           1.62233527597152   -0.88588936495444   -1.23068239219037
H           1.58894309147222    0.13806533896146   -1.07679189491779
H           1.82229079782675   -1.33591320476369   -0.28253147592117
O           1.17071956683150    1.55651130202472   -0.72155479436456
H           0.19219371752679    1.50120735647469   -0.82726860976062
H           1.27928839950371    1.73452577278697    0.22853115325770
O           3.01607574815335    0.14262628545312    2.44321565543657
H           2.22980413837432    0.71814496596122    2.44601535251542
H           3.72386385062416    0.63925745164173    2.02958515211878
O           1.77201845561778   -1.80712287866130    1.07968925035628
H           0.84318700567581   -1.55495093685139    1.25641578235717
H           2.32060562413227   -1.22845963434963    1.65461656949362
N          -3.33571348061512   -0.17275214568076   -2.31929758550858
H          -2.81852755249243    0.67866226448304   -2.12379568680936
H          -4.07700923831243    0.02989833070848   -2.97819728784426
H          -2.68508818510515   -0.82322714133767   -2.74334851250135
