    26
        -50.46035917  Gyration_radius:  2.44055038339 Dipole_moment: 0.977
 S           0.12126096031850    0.50909190430709    0.65137509644838
O          -0.54497487437525   -0.45783347634254    1.50514516210715
O          -0.61857251312334    1.73343167466130    0.45146321077886
O           0.48983235543794   -0.09988428297930   -0.64380354803008
O           1.46526535507445    0.82007511959429    1.37759997258661
H           1.92927511773604    1.56431048099564    0.89460672330914
H           0.43431171223761   -1.53482927814623   -0.69447598856951
O           0.62850319610884    2.40376995958124   -1.78385711524204
H           0.79344743114155    1.47964570776090   -2.00416498386662
H           0.00121168168750    2.35228697622100   -1.03529792241294
O           0.31501105966169   -2.56479722612230   -0.51211066297343
H          -0.73494530992651   -2.59932892493352   -0.24307432204648
H           0.81966144995927   -2.66959355574616    0.35974103705327
O           1.39260001021285   -2.19265314451906    1.78825214823132
H           0.67509340569482   -1.53117066865020    1.91202891382900
H           2.21094428284087   -1.69287740716643    1.82927976891014
O           2.49489688827471    2.78591490271612    0.04562953110006
H           1.92052233594677    2.74816105945128   -0.76083620800868
H           2.28046962085460    3.60993486486090    0.48855744668231
O          -2.03706035717597   -2.29320895841325    0.24145414112862
H          -2.35479744343586   -1.55659928840231   -0.35461652531391
H          -1.76246193965831   -1.80937344022554    1.03967925644207
N          -2.48752832203921   -0.01345512466496   -1.04523975870672
H          -3.42122246505531    0.37317737373145   -1.11570631594474
H          -2.06194451463999    0.04481205606443   -1.96254653127083
H          -1.94879912382200    0.59099268639712   -0.42908251628932
