    26
        -50.45474225  Gyration_radius:  2.44825286277 Dipole_moment: 2.043
 S          -0.33785148545826    1.52098237520923   -0.05193726961885
O          -0.66755522636417    2.00990798845900   -1.35236257177863
O           0.95039133524373    0.86344551943141    0.03291999993508
O          -1.42554679990253    0.52508567401166    0.42861612556111
O          -0.42009548959411    2.61638952994358    0.99032395270976
H           0.05269400580389    2.20793419350617    1.82468460150472
H          -1.49429272407478   -0.27168011438929   -0.20417386227032
O          -0.72357508666388   -0.72391247390850    2.92419104724711
H          -0.22992035449794   -1.30322570197010    2.28775922690403
H          -1.48385415609718   -0.40372597139786    2.43042278810838
O          -1.58747313370554   -1.39825573883651   -1.22731694561467
H          -2.50371311761846   -1.55560032028244   -1.46566806243070
H          -1.15927325829088   -0.96936147310430   -2.03596789521201
O          -0.50752343543214   -0.03489027412491   -3.12137422757095
H          -0.66601059867225    0.83663563283953   -2.71885367031528
H           0.45710718426132   -0.17199595395381   -3.03557387852616
O           0.80293972663671    1.38659530906630    2.78561567022876
H           0.22260348730034    0.59699657431661    2.99796249530575
H           1.49641929319210    1.04946182999004    2.20840718280283
O           2.05995776040750    0.01742487872023   -2.27889878033580
H           2.59727010199048    0.72864403658751   -2.63181778882445
H           1.74089234703781    0.32074905873487   -1.40851210310659
N           0.59097326971384   -1.92325492681908    0.90533499718387
H           0.95831125115432   -1.05767383379037    0.51963434769382
H          -0.07630921118777   -2.28060540457105    0.23117761060722
H           1.35343430481114   -2.58607040365973    0.96540703979105
