    26
        -50.45553240  Gyration_radius:  2.42630439708 Dipole_moment: 3.575
 S          -1.65706316046523   -0.15731399205287   -0.03755175653393
O          -2.14745672774636    1.17636455515579   -0.21497901891295
O          -0.64668669899019   -0.28767964016121    0.98909964918269
O          -1.08181677884839   -0.68545548565179   -1.36160110188300
O          -2.79879782204645   -1.12166816096606    0.25416854076076
H          -2.33303446304641   -1.95130995941700    0.62410662635144
H          -0.24929534732986   -0.08400120856847   -1.69072218220691
O           0.54351340708238   -2.86981912817419   -0.67449519378009
H           1.30375659690321   -2.34043290202167   -0.40293606249403
H           0.02613660749074   -2.31033941088267   -1.26789654049200
O           0.90254583286190    0.67666900345754   -1.91316574893420
H           0.65180570162253    1.57321835962648   -1.59708018594002
H           1.48496676594512    0.28268040095245   -1.21101775533626
O          -0.21400743898098    2.87158319612669   -0.86017393599257
H          -0.58341785192347    3.52843999736169   -1.45399856257894
H          -0.97386987831441    2.33711626256443   -0.54187093314327
O          -1.34226875647039   -2.96470738400737    1.20818732877758
H          -0.91821179437848   -2.42561434985178    1.88347911820421
H          -0.64824150083601   -3.11880032290406    0.52138601495498
O           1.90501373847793   -0.46436503371817    0.23143224253591
H           2.28042202139231    0.30538643884869    0.69562879269760
H           0.99523350267624   -0.50041146023559    0.59004409481814
N           1.56915147981581    1.94684883263599    1.46696078520837
H           1.94414902060302    2.52946372897991    2.20592511921278
H           0.73780150002168    1.48965500743007    1.82955703639535
H           1.24967204449058    2.56449265551510    0.72751364915254
