    26
        -50.46333548  Gyration_radius:  2.52642482925 Dipole_moment: 3.661
 S           1.39490417892470   -0.19373923806765    1.04972893849929
O           2.03047302112773   -0.33795170666131   -0.25572037876098
O           0.65075999589920   -1.37917306126266    1.42509273357475
O           0.55317551052696    1.00565387393066    1.08532844471418
O           2.55145246104462    0.01304065956008    2.07932509576764
H           2.06396235230851    0.25002044995257    2.89020255938334
H          -0.50890338326772    1.83107325920285    0.01123871553733
O          -1.42351315424822   -1.98272293933792    0.04812497413148
H          -1.82321847459836   -2.72505796674881    0.50490678725176
H          -0.64443538573545   -1.71577946899937    0.61467190999505
O          -2.91062967260054    0.14339126531581   -0.73280335961374
H          -3.36949912169533   -0.18802438989993   -1.50590977204541
H          -2.40001010955637   -0.60742021388963   -0.36907934451518
O          -1.01592294775903    2.06219283057534   -0.79401136018236
H          -0.03731687622158    1.39635097868600   -1.75326153496129
H          -1.81529652341697    1.49807938866987   -0.75404793943188
O           0.33364995476153   -1.81889248809931   -2.04638008402878
H           1.10465782720190   -1.73262917024642   -1.46760824594535
H          -0.40324890791958   -2.01133065125924   -1.44078938522134
O           0.71010899487793    1.01977270814759    3.69880775777349
H           0.39642962513826    1.09347198397389    2.77407454926669
H           0.82338464836327    1.91697278114696    4.02056818042625
N           0.74087942765533    0.79625153612935   -2.20740033513998
H           0.37795528903305   -0.14547134349727   -2.48053799696633
H           1.40914206656031    0.54444573921510   -1.42318086253539
H           1.21105919359213    1.26747516346241   -2.97134004697636
