    26
        -50.46241471  Gyration_radius:  2.40595654359 Dipole_moment: 3.777
 S           0.88738048430425   -1.42843304046907    0.36972570760027
O           1.36584233391675   -0.07759317317584    0.64343384418411
O           1.43681741069763   -1.97892120370561   -0.83772765144733
O          -0.59236023129422   -1.43092016496692    0.35477646998013
O           1.31386249749293   -2.33125105757797    1.56687330663896
H           0.77449112166320   -1.99034040764300    2.30314587211188
H          -1.29399628807967   -0.81343728430628   -0.84802283710096
O          -0.75545803391269   -1.33581798825093    2.94404342581904
H          -1.31523435502833   -2.02994407311330    3.29856241975626
H          -0.92142577028349   -1.30773032316834    1.97675039625464
O          -1.58128347978019   -0.29915859754025   -1.67996521785595
H          -0.78723424669093   -0.46273222797285   -2.34251120960695
H          -1.50030193885758    0.75024555123529   -1.39965988202745
O           0.57369337913397   -0.63336742563645   -2.93073937973187
H           0.96335105253511   -1.28797442647544   -2.30816412796530
H           1.01470201315118    0.20496722924283   -2.70709154316197
O           1.48346550889798    1.47483559086952   -1.44527300046816
H           2.32258390831270    1.93723819360078   -1.44328713700385
H           1.49202248058340    0.88885542776529   -0.64526202487204
O          -1.15169041394891    2.03916297150283   -0.96617879647002
H          -1.10444176289492    1.96136545361942    0.03758442528661
H          -0.22238739472520    2.10057299712679   -1.25138252057671
N          -0.71654547613274    1.60746588343427    1.59092187463052
H          -1.37562709848461    1.06916651419393    2.13912928007163
H          -0.39552413690236    2.37366739832679    2.16934172161629
H           0.08529845632425    1.00007818308371    1.41097658434290
