    26
        -50.46460253  Gyration_radius:  2.41109786341 Dipole_moment: 2.663
 S           0.59970944294533   -0.29937356275288   -1.22508695126143
O          -0.33983230844717   -1.39602024502230   -1.10215601563049
O           1.25287796982821   -0.00891075854224    0.05781428885770
O          -0.04222926952177    0.91798189100568   -1.73840558112755
O           1.69646974541962   -0.72338573845334   -2.22840884118010
H           2.28089910316703    0.08692881002695   -2.25331658446803
H          -1.19533914235084    1.38252950164587   -0.95860125104883
O           0.63203674894401   -2.28942530104749    1.27180997059752
H           1.08185964873389   -1.47320953426443    0.97640680075287
H           0.24191957089677   -2.62249225503195    0.45351394120656
O          -0.36002150339182    1.26514563102935    1.71713073342071
H           0.36455013096129    0.87603933058186    1.17419647002243
H          -0.75136032682174    0.50807618317898    2.19298124101833
O          -1.92040636523156    1.54958805302680   -0.22668677620233
H          -2.39999882459967    0.61170312138745   -0.14918633309613
H          -1.34051511297129    1.59586312205712    0.64786680881970
O          -2.65655883884371   -0.82921974754860    0.03125816965538
H          -2.41954929368771   -1.02264116614689    0.95808740699177
H          -1.90908221702795   -1.18208039297827   -0.50293506460798
O          -1.41025398774203   -1.14744648575132    2.44733607241802
H          -1.62612891586043   -1.56515085963940    3.28176947995854
H          -0.62944116907457   -1.64540436534699    2.07295922308626
N           2.73632232639503    1.62042316592303   -1.84740254953781
H           1.81666200480936    2.01982185290072   -2.00077071964945
H           3.44114655671336    2.25361104894971   -2.20322612890170
H           2.85626402671033    1.51704870085535   -0.84694779012341
