    26
        -50.44696446  Gyration_radius:  2.62310262794 Dipole_moment: 4.248
 S          -0.59116874259923   -0.56014819132373   -1.27492252734889
O          -0.22677185943930    0.77671322278348   -1.64869128772582
O          -1.67814414251198   -0.69104851198127   -0.34370275254661
O           0.63124909798565   -1.27460633524192   -0.67486601364299
O          -0.91302552599371   -1.36161963397688   -2.54707636544372
H          -1.27412348873608   -2.25999585097152   -2.19929617313995
H           1.48239309840326   -0.70855382363731   -0.87115038983039
O           2.46711817302260    0.35034657530251   -1.17498779026712
H           2.41496026085226    0.85990595810908   -0.31972971957663
H           1.93248983738415    0.85585498612001   -1.79826005163040
O           1.90577393368358    1.62186031686515    1.04166229045096
H           0.94482138176450    1.45792186246428    1.11111570737420
H           2.25553678515359    1.24558549255165    1.85854399455045
O          -0.79384722772190    3.08221456380202   -0.26903516457262
H           0.07665360594441    3.47694272304456   -0.17441740595458
H          -0.69290019251338    2.36010080606255   -0.91127688874082
O           1.16913743092799    0.38610081923436    3.47210376247225
H           0.90637846278347    0.61595050868959    4.36406931879455
H           0.38174426225803    0.50051801475279    2.91852832239656
O          -0.76035119604248    1.05676292305859    1.51646232396800
H          -1.16905717396426    0.36188891735110    0.97636258845868
H          -1.01862567534453    1.89543848032431    1.08643971317319
N          -1.78201296688892   -3.38382617226545   -1.24311622180896
H          -2.57734620191102   -3.95817512841885   -1.48926438829788
H          -2.04937477958190   -2.72946841386043   -0.51320873907245
H          -1.04150714691689   -3.97666410886528   -0.89228615205171
