    26
        -50.46333550  Gyration_radius:  2.52647080988 Dipole_moment: 3.661
 S          -1.60230712753838    0.26940531286933    0.66720733114969
O          -1.30481501615079   -1.04440343991129    1.22793437808978
O          -1.94216807649903    0.19488861346977   -0.73951299356258
O          -0.49265489412732    1.19679038805063    0.90597636652610
O          -2.84218935208509    0.80884723977910    1.44951815071631
H          -2.89475477848781    1.73193066118096    1.13890594915133
H           1.22727389192696    1.12688175413224    0.91438923668905
O           0.09390145306818   -2.66870636648978   -0.69120944719110
H          -0.69458609589211   -2.42059000179097   -0.18764372341377
H           0.10727140374291   -2.04859715273204   -1.44093535260309
O           2.14029566648034    0.77814439942018    0.85366461659584
H           2.34305523393143    0.77948805456095   -0.10429705168948
H           1.75568798033587   -0.64602659698594    1.23473285895128
O           2.35133279871502    0.45260934475759   -1.81559857853441
H           2.93492726893481   -0.17875323879886   -2.23848637500189
H           1.43867021918096    0.18194741846117   -2.04035589799131
O          -2.13151109122555    3.21458654831239    0.59277638011196
H          -1.34865751528152    2.62645924944355    0.57765169453101
H          -1.94729939078175    3.89662112129786    1.24256541472619
O          -0.11201543749226   -0.52383042107721   -2.38170870537292
H          -0.80856687946941   -0.19403224181279   -1.74511149711819
H          -0.49819273852835   -0.41773590441392   -3.25295965534714
N           1.23219872240365   -1.57162143414127    1.43750607657123
H           1.62065229735877   -2.08433736104459    2.22043469337385
H           1.15541156885807   -2.15671260065595    0.57440644056061
H           0.21903989862804   -1.30325333588739    1.60014968007964
