    26
        -50.45131553  Gyration_radius:  2.58939338127 Dipole_moment: 3.487
 S           0.54642874595143    1.04696127622608   -1.15020231439454
O           1.29541563723819    0.83684918606746    0.06506893774081
O          -0.74263295132308    1.64829929345641   -0.96540230860782
O           0.42073495202984   -0.28175664536428   -1.89979636932222
O           1.37951195486634    1.89731437289914   -2.11940179409359
H           2.26968065838507    1.39703398828327   -2.14591786783464
H          -0.35258723207865   -0.91506751170361   -1.52831364912890
O          -1.39090898634209   -1.69844364946221   -0.95760612245178
H          -1.00253655433049   -2.06063582229956   -0.11642936173816
H          -2.06765413255561   -1.05423468861357   -0.67243353511955
O          -0.52382082582120   -2.42465168696176    1.41475581039364
H          -0.91504970388642   -3.21463562766800    1.79077626323239
H          -0.94647116790751   -1.65786443927171    1.88903279671929
O          -1.77600912635850   -0.36145965408895    2.45023351006425
H          -1.09777828998536    0.33553796912728    2.56507836986101
H          -2.31782418163259   -0.06567469660266    1.70452046256134
O          -2.85849991689298    0.40105353825378   -0.02592445523925
H          -2.10477207487592    0.96088289847034   -0.31755901576168
H          -3.65302908276358    0.83378277193092   -0.34252906157961
O           0.25727654801955    1.41831933554589    2.47376068097711
H           0.60481179466224    1.26698701972474    1.57358981995959
H           0.96782649319121    1.18219721339080    3.07295520678297
N           3.37997527303193    0.32658488474506   -1.80079426811691
H           3.04663475352788    0.19625164249823   -0.85013735375906
H           4.37431488088218    0.51198179424812   -1.78992643246188
H           3.20696250486649   -0.52561273277277   -2.31739794871950
