    26
        -50.45249863  Gyration_radius:  2.51531216196 Dipole_moment: 2.838
 S           0.68774763196874    0.75818781485766    1.38025785344319
O           0.13664879570810    2.06493073899814    1.51930258467691
O           1.22539514680426    0.48829364391915    0.05859817045164
O          -0.34383556822255   -0.33125468606594    1.72093036222872
O           1.76821569033383    0.50914522857022    2.42827416958248
H           1.94599901974826   -0.49150754663185    2.41093178051717
H          -1.14659782394337   -0.34561090263286    1.08516665193488
O           2.20712495447676   -1.99396552797389    2.20915112170509
H           3.15104466020661   -2.16875097438965    2.18590385579632
H           1.86644450790008   -2.20095357561751    1.30175281732323
O          -0.68105561919435    0.76466419446027   -1.79968230317754
H          -0.97267882518683    1.70141922711896   -1.66468043955140
H           0.13156800626745    0.70539751448515   -1.26209507232325
O          -0.82290605215287   -2.03438361453211   -1.91847288231319
H          -0.70471044183858   -2.49842338865957   -2.74848635537021
H          -0.73356422198345   -1.08709952198864   -2.11470922407847
O          -2.20278378075132   -0.42838033699001    0.00772977515841
H          -2.18526412394289   -1.34102208723927   -0.30295154939242
H          -1.77658519053730    0.09542682365624   -0.71827971376583
O           1.48610764226798   -2.13109902798795   -0.31733515180618
H           1.51406584342748   -1.15569484258831   -0.31607637866110
H           0.64367421834451   -2.35156856823372   -0.74364686392169
N          -1.28216772815133    3.16547874808589   -0.79193622115727
H          -0.87714290921880    4.02726488853676   -1.13626849788360
H          -0.79052692221388    2.92061091987416    0.06800873459339
H          -2.24421691011183    3.35889486896718   -0.54138723401228
