    26
        -50.45932460  Gyration_radius:  2.43939219708 Dipole_moment: 7.810
 S           0.83210573517331   -0.11939659733852   -0.34946829699698
O           0.56978770469121   -0.70215277383966   -1.73254266134875
O           1.06466132434008    1.32737938800222   -0.45482212039131
O          -0.33793532077736   -0.36872662480844    0.50236643374584
O           2.01152387106009   -0.78797841442151    0.19262731487085
O          -2.71230638783036   -1.36913623237295   -0.47381875355373
H          -2.32336892700339   -2.25406872789955   -0.51775991248703
H          -2.09522732455817   -0.87034516872525    0.08414111670174
O           0.17129868486824    0.46028095670089    2.94400142940156
H           0.01817168044049   -0.29762972340666    3.51167315632252
H          -0.14574324895758    0.19106727726262    2.04777008928804
O          -0.40707136802491   -3.01678615363227   -0.23378147715249
H           0.19424147884343   -3.07609953210052   -0.97893013212955
H          -0.24709384958505   -2.14499249362185    0.15500423867236
O          -1.15775947636172    2.37258513937357   -1.45037262870429
H          -0.34463677234592    2.03383265663649   -1.01775021751222
H          -0.87087389121344    3.05370348933182   -2.06145278670514
O          -1.69111218447608   -0.02096087187946   -2.50669163474714
H          -0.38541922775830   -0.42289991983215   -2.12508916293777
H          -2.25280361499106   -0.53159230682718   -1.86963300345487
H          -1.69977487320014    0.90968215182810   -2.18923574436742
N           2.40723734890828    1.15827815991851    1.74811548878747
H           1.97690555316598    1.69689074578591    0.96166143742806
H           2.51701663794498    0.21624005810021    1.23173187379169
H           3.25982002730702    1.56266129849701    2.11971400353775
H           1.64835642035501    1.00016419921634    2.46254193994124
