    26
        -50.45669544  Gyration_radius:  2.50785328135 Dipole_moment: 2.570
 S           0.63687136152055   -0.31389079467595   -0.86335724283826
O          -0.03015800900754    0.94907365218381   -1.06269235171297
O          -0.19213781200846   -1.46268920023973   -1.13335039823709
O           1.17208486077387   -0.39448994443657    0.56223389217768
O           1.88327524171955   -0.39960718757921   -1.73053324482295
H           2.45042280003632    0.43718825128467   -1.55391357625025
H           0.35646193720359   -0.46875245686074    1.27288969509519
O          -2.96466522120875   -1.47815531414745   -0.95210928755271
H          -2.06438688161370   -1.47992947142257   -1.31076013237388
H          -2.99666253985034   -2.21474369888088   -0.33432997143055
O          -0.78446429132890   -0.60373712249232    2.04977045413921
H          -1.04722158845291   -1.52772435930376    1.85765173757344
H          -1.45051360465938   -0.02657981509513    1.56839059993929
O          -2.28583890117391    0.74744583620705    0.42607295981485
H          -1.58560938746411    1.01821155370499   -0.19063431880108
H          -2.78136590128648    0.05158901756119   -0.05211194027821
O          -1.11542776755756   -2.99758880389584    0.85771447401603
H          -0.73225577012005   -2.55425244866874    0.07371231498924
H          -0.54514426299330   -3.74106509933405    1.05799363598058
O           3.13733539735132    1.75007852212543   -1.28521314570086
H           2.64734081229572    2.11933564617535   -0.48695765270942
H           2.93444688621435    2.33284536227737   -2.02083109973242
N           1.56107007842723    2.56393789516163    0.65746238145190
H           0.75608422337167    2.19775481130596    0.15364742722859
H           1.35275189183534    3.50732769584989    0.95883574579565
H           1.68770642798258    1.98841748317489    1.48041903426271
