    26
        -50.46405442  Gyration_radius:  2.3823544818 Dipole_moment: 7.509
 S           0.45052670945733    0.80973424352949    1.13728765642515
O          -0.57216577613885    1.69823634796233    1.61038455913049
O           0.65716192578745    0.89409431670869   -0.32032525656427
O          -0.00821308436499   -0.67058770680765    1.39958945923024
O           1.75111947085372    0.92098889687179    1.79739393436987
H           2.55738298128900    0.17822539831433    0.88756262305616
H          -1.02122062672294   -0.62769902718774    1.56680843671868
O           1.34905502957674   -2.37761366106678   -0.22566049688831
H           0.79003113809742   -2.14558407587311   -0.99019640560508
H           0.81206319264094   -2.11277544075144    0.53962977084439
O          -2.78981269762829   -0.07944886473515   -0.92788496096076
H          -2.49758984301243    0.84670171547968   -1.05818153440021
H          -2.08222678147406   -0.62684512763850   -1.29801957854609
O          -1.52508474461315    2.32040464374145   -0.96953639573858
H          -1.72302396572616    2.76644422688095   -0.14161616627447
H          -0.65923915555138    1.90170821184657   -0.80999431391152
O          -2.46464783016968   -0.24488170133743    1.68311615525129
H          -2.24639178212975    0.67483081601891    1.89178913933810
H          -2.75802220802702   -0.24811257845825    0.73372641012272
O          -0.27037237910314   -0.96576709268022   -1.89367785963547
H           0.05627807282329   -0.23749451058631   -1.30860892617056
H          -0.26268452385381   -0.61647642250235   -2.78653860903253
N           3.04106787164232   -0.38739017989154    0.06104109151051
H           2.96701015584539    0.21091721659478   -0.75841371627254
H           2.44133898260908   -1.26624364651354   -0.09169439992493
H           4.00765986790973   -0.61536600792906    0.27201940392896
