    26
        -50.44807019  Gyration_radius:  2.44859213571 Dipole_moment: 2.207
 S           0.63371326452261    0.87594081695004   -1.13115539757737
O          -0.49774332287787    1.49831428121381   -0.49600632657609
O           0.33840386196557    0.29701273448402   -2.41486382807843
O           1.21482471963312   -0.22656222033362   -0.20694311593214
O           1.78853964436544    1.84396125958949   -1.23615187662525
H           2.10927812167764    2.03142454121517   -0.24297718454686
H           0.75676892526729   -1.10525271126867   -0.29218229430493
O          -1.58250906491959   -1.48947899836513   -2.42386023411852
H          -1.92087468470783   -1.66904121695084   -3.30266860605819
H          -0.92247780994010   -0.76379756884236   -2.51889439451771
O           0.12831051504094   -2.56914208391893   -0.64791668401282
H           0.77435397099438   -3.05014070962006   -1.16926068194498
H          -0.60846855802985   -2.33935633775555   -1.25015287411671
O          -2.34473398313195   -0.39943763597146    0.09822409165576
H          -2.40027918231701   -0.87882541183527   -0.73643315722797
H          -1.81852216650836    0.39456577187953   -0.09262106194752
O          -0.62077680826908   -1.43142418797544    1.97958261224000
H          -0.24534486735976   -2.15399670197294    1.47177368770942
H          -1.36219624938236   -1.09748999204991    1.44087900467450
O           2.41307752163195    2.28922142939490    1.12605264352352
H           1.63065711553960    1.84192990719341    1.64617644913278
H           2.33119523415067    3.23503119153939    1.27004477981691
N           0.30996372637855    1.31531555858187    2.23912675605029
H           0.27896711859695    0.29840325638845    2.31483382475870
H          -0.31854648127506    1.55584184092471    1.47689822290623
H          -0.06558056102822    1.69698320751449    3.09849566512243
