    26
        -50.45932463  Gyration_radius:  2.43950490268 Dipole_moment: 7.809
 S           0.10613371226069    0.84942606141718    0.31149051546908
O           1.03277411097575    0.41385011088904    1.36495720442636
O          -1.24781255874832    1.18794531554436    0.92255163901487
O           0.60693678004249    2.05484904140283   -0.34274113953117
O          -0.06981517275286   -0.23174574872944   -0.66670597006222
O          -2.18413005556293    1.07145702797209   -1.84563772867773
H          -2.40313180541632    1.77706866548526   -1.23366350958949
H          -1.32966827709643    0.72940589592728   -1.54610022102846
O           2.22026415380588   -0.69947323157781   -1.86828593544059
H           2.04334240335525   -0.61248803851426   -2.80698023919792
H           1.33850011265683   -0.65539995116367   -1.42482297758446
O          -0.02453064814241   -1.76412920780908    2.44245117454045
H           0.43211148688738   -1.00184703087348    2.02581664042598
H           0.14270494574860   -1.69313657389471    3.38406221530014
O          -2.43353243953590   -1.61747154778151   -0.95671637773272
H          -2.81454721397581   -0.86917235520124   -1.43750515280332
H          -1.48134968563403   -1.43259667887764   -0.95305934469476
O          -2.40536914007968   -0.90697690552538    1.59043971402936
H          -1.64211289452061   -1.40645984174003    1.95780419265426
H          -1.78340312397080    0.32088045130225    1.24790137832102
H          -2.58327124425222   -1.29850214210896    0.69763048544831
N           2.96432978009849    1.17222281957870   -0.17742939190536
H           2.11701098406011    1.80835146922888   -0.38690062935541
H           2.58975514438670    0.72580224154733    0.69096510216895
H           2.95446186456107    0.43435363681344   -0.93021719717730
H           3.85434879087348    1.64378653671558   -0.05930444708371
