    26
        -50.45970196  Gyration_radius:  2.46871932149 Dipole_moment: 1.815
 S           1.17323361901884   -0.09594693833299    0.56945994361718
O           0.15572947349728    0.11367639070109    1.59744083225334
O           1.55638193704064    1.13722122099153   -0.08475241571753
O           0.71328225673394   -1.09957821910499   -0.39821544273430
O           2.40664873304651   -0.69403650576114    1.29982091474612
H           3.03779932087637   -0.80573760554746    0.54007962444959
H          -0.72580559829944   -1.37869694218027   -0.61873897494989
O          -1.80216039198423   -1.56391518474528    1.97661088754446
H          -1.48429349558899   -2.36102612559844    2.40324955631610
H          -1.03487530362267   -0.93837390767191    1.95149401635977
O          -1.75366393610150   -1.47694564612112   -0.60965412457831
H          -1.96037546870592   -1.60886901770773    0.36606717348914
H          -2.12432790807913   -0.43332560407476   -0.87091732165137
O          -2.41718035285938    0.84995220519352   -1.05311642011215
H          -1.62332216639721    1.22696906911750   -1.51924494370958
H          -2.38291862229324    1.24713059024345   -0.14300716572279
O          -1.97509046468447    1.68512081517286    1.39923512188169
H          -2.53366973182408    1.30045125260189    2.07828099202776
H          -1.09759003976727    1.26173416211410    1.50719849020440
O          -0.15964175932920    1.85527095921691   -1.92869474609483
H           0.50977376760003    1.55510301242246   -1.26870591983759
H          -0.14224383101453    2.81388221011934   -1.89499013194489
N           3.46777829982725   -0.71176143878551   -1.06965790896883
H           2.67562756355672   -1.23124953987657   -1.43145011379740
H           4.28455017540795   -0.91808224120000   -1.63126446444312
H           3.23635391393153    0.27103303882362   -1.16652746862754
