    26
        -50.46029062  Gyration_radius:  2.63090341736 Dipole_moment: 4.876
 S          -0.40988307572758   -0.55267495630146    1.49935526933184
O           0.98539619505644   -0.48513616672816    1.03444454491986
O          -0.52121742564848   -0.79685167980093    2.91174682089093
O          -1.01521295562634   -1.81649774118672    0.73422453683779
O          -1.18034605495477    0.57059218341810    1.00259900830166
H          -1.63155531665378    0.39845247192147   -0.56730617279199
H          -0.81415980023965   -2.58043948642326    1.31708393563784
O          -0.35453126716426   -3.38871643086501    2.73939434427905
H          -1.04186695423811   -3.79543365684267    3.27199342307619
H          -0.27023171892434   -2.46496406587320    3.06383961474601
O          -1.86089452740871    0.22941846621826   -1.51066788116195
H          -2.81663736085728    0.27606764576326   -1.55102686603973
H          -0.53738826673397    1.19965413045582   -2.59228539165606
O           0.41040286243934    1.19730197139942   -2.79653236719007
H           0.79300045869910    1.95128444692808   -2.28924480293081
H           0.68830837995023   -0.10131905716351   -2.05899787818042
O           0.97355785722159    2.21017356539245    1.23437405664604
H           1.33174373713451    1.30901951112963    1.26065886396900
H           0.01835896521499    2.06422994368666    1.28028216647457
O           1.38311949767577    3.10976244104854   -1.23794693156117
H           1.21610919563620    2.83911844020059   -0.30294518308600
H           2.27869975678421    3.44783250255319   -1.26267740937429
N           0.63384139657179   -1.00822953345402   -1.46186962385344
H           0.90533492145021   -0.79127022623306   -0.44643470422139
H           1.19550279043681   -1.76259811183976   -1.84175488498951
H          -0.35945131015148   -1.25877662742153   -1.43030649810393
