    26
        -50.45932462  Gyration_radius:  2.43960937295 Dipole_moment: 7.809
 S          -0.89991774678003   -0.13361649533469    0.04326248429393
O          -2.01438828471885    0.80503830830536   -0.04962790831845
O          -1.08929408459475   -0.94554265599680    1.31846253382202
O          -0.88526179266508   -1.03048232475460   -1.12016136606961
O           0.37620675580816    0.58876061165234    0.12368982531506
O           1.17975910659156   -2.65795118741257   -0.78936687809339
H           0.88038418015553   -3.51829669392822   -1.08898108979608
H           0.44854731576637   -2.03225612852580   -0.98154508744444
O           0.63077922738408    2.14206148403738   -1.98103162492728
H           0.66714315413692    1.53948717982415   -1.19890214585666
H           0.78010954506652    3.02447568072578   -1.63600192220460
O          -0.21113981000254    1.50749997289195    2.64736387876421
H          -0.97366304153226    0.99268131885799    2.91909683531077
H          -0.11305799860123    1.33794474421675    1.69950251656756
O           2.22539754409914    0.14166619243059    2.11699829793967
H           1.68456645103983    0.65331862032789    2.73506183817601
H           1.86205790574687    0.36725182690696    1.24642732238632
O           1.00189635931786   -2.18566457174740    1.83271856990163
H          -0.22319678538497   -1.51756098088975    1.57714944068948
H           1.25472564555129   -2.46568958393891    0.92466889257963
H           1.59981375892965   -1.42910672062630    2.06101587888413
N          -1.66329219095420    0.98462153033217   -2.54115512677222
H          -0.79612480124687    1.58281190312867   -2.57786596898491
H          -1.34535981453659   -0.00537453072921   -2.42901503746955
H          -2.06335827372538    1.11867378686207   -1.54691202868314
H          -2.31333234484506    1.13524869339534   -3.30485217001018
