    26
        -50.46071881  Gyration_radius:  2.47205808307 Dipole_moment: 6.572
 S           1.35192881913850    0.44126043139009    0.32059783492086
O           2.41727996044901    0.25842248426152   -0.62609310400264
O           0.58036309824692   -0.77567468911122    0.56035705234925
O           0.31988303335804    1.49301188347743   -0.27185592985306
O           1.75264133950238    1.06311925150088    1.58222300493449
H           0.50753944635408    1.53784499946386    2.06714287098589
H          -0.07730800576348    1.10353450166028   -1.09652517147651
O          -1.96586080118797   -0.78608453478617   -0.15088442162538
H          -1.94159944279267   -0.38018900650176   -1.02446788911533
H          -1.02434564720167   -0.92624030100407    0.08241782152203
O           1.34956184693086   -2.92647636223169   -0.84952595347438
H           1.03384105397905   -2.21249852713858   -0.26033558867979
H           2.26165961792612   -3.08630225537078   -0.60123722262792
O          -2.32247968985141    0.05719612634446    2.29541514471178
H          -2.06075840523807   -0.74057369892831    2.76004800134074
H          -2.35476538104726   -0.20857988091102    1.33916202332154
O          -0.73106893912890    0.42604956406747   -2.40181518833171
H           0.03182195665704   -0.20570281045220   -2.60929965359804
H          -0.78396383890411    1.02214847846942   -3.15079039852353
O           1.38267641223894   -0.98895009528777   -2.73328070799094
H           1.92728424030826   -0.48387718295499   -2.09446947437745
H           1.28206583808535   -1.86241823016409   -2.30547334514208
N          -0.50066928019860    1.95959468503998    2.27182391740033
H          -1.22162134065958    1.17216458510116    2.33724852754852
H          -0.71246771192558    2.51959182474806    1.44752086553105
H          -0.50163817925938    2.52962874931480    3.11209697424923
