    26
        -50.45130279  Gyration_radius:  2.46758273106 Dipole_moment: 0.986
 S          -0.89539119701567    0.19224773857552    1.19874630801593
O          -1.72815049255135    1.01577861585017    2.02205767717263
O           0.21796265705549    0.91161515695561    0.61596849549825
O          -1.72441881011633   -0.44486699024540    0.05687264026440
O          -0.40012161430745   -1.01403207336246    1.96227211258550
H          -0.25232372251706   -1.82641752555392    1.28942286872248
H          -1.93980447696061    0.24183699064747   -0.63842265224264
O          -2.22261402558886    1.48676121787784   -1.58205919162567
H          -1.98625549826920    2.21644251426534   -0.94731593491362
H          -3.15721125280795    1.58654786501323   -1.77561038481247
O           0.48716827909112    0.40540727493496   -2.03494468102613
H          -0.37570654495402    0.64971706379677   -2.37982218833640
H           0.48372370131959    0.67671662107539   -1.10134058430509
O           1.68420659556123   -1.91826145447250   -1.24174570075119
H           1.26335000367345   -1.19295759641965   -1.73884043233549
H           2.24557036708166   -1.46624601143492   -0.57055627968980
O          -0.00100931786325   -2.89649730136281    0.40137083955995
H           0.48353670933785   -3.58631843648712    0.86101494859744
H           0.62670691374544   -2.54241839199682   -0.32555450882261
O          -1.54986662052489    3.10361648385548    0.36643859693862
H          -1.74572024869372    2.50103149090609    1.11006237653617
H          -0.59049544466161    3.16526139716381    0.34627074726745
N           2.74799624675600   -0.51231915796477    0.83118174443890
H           3.55422601131597    0.07798420477994    0.66776636451416
H           2.84771649297294   -0.92045470075174    1.75227370199374
H           1.92692530893286    0.08982500434201    0.85449309675367
