    26
        -50.45497953  Gyration_radius:  2.41629927979 Dipole_moment: 3.893
 S           0.10803175806524    0.73551656275149    1.29229322313994
O           0.60882288254527    2.02623594092928    0.95107963213955
O           0.92608098577540   -0.37863607577156    0.84586127182015
O          -1.30178792691163    0.55323928896351    0.70767698756996
O          -0.09928062599483    0.60085345145381    2.79949710585130
H          -0.28757483096165   -0.39130574128611    2.94578609814695
H          -1.42625739280029    1.27978838503326   -0.06375362595227
O          -0.11153688823259   -1.73046967327302   -1.17308027935874
H           0.53045586368479   -2.37606717128708   -1.47447335282977
H           0.30911397380692   -1.23642906197347   -0.43526272172098
O          -2.09465121285168   -2.12212815733510    0.73426485309316
H          -2.40525323110110   -1.21016819565498    0.74068072879511
H          -1.52720508154849   -2.18166108285549   -0.05275009137606
O           0.01706565651291    0.66509116301057   -2.64949407856533
H           0.92844814100603    0.84120219402631   -2.31603461695225
H          -0.20948251058420   -0.21942148598083   -2.32339724016257
O          -0.43371880338182   -1.91312940746062    2.79448997296766
H          -1.13459105331242   -2.09073917279129    2.11424260394071
H           0.40243339831483   -2.12707778562970    2.37018844491083
O          -1.29385139567374    2.25113219239722   -1.08113491389317
H          -0.86252609224780    1.70929620235006   -1.81419760589683
H          -0.59035592244202    2.77492099594072   -0.67820021255054
N           2.31827680045545    1.09151965798129   -1.27970147583469
H           3.27860558157031    0.88354686808489   -1.52550836038421
H           2.06415680281239    0.51649723744310   -0.48103925334057
H           2.28658110350444    2.04839287092999   -0.94803310353195
