    26
        -50.46843931  Gyration_radius:  2.3960546642 Dipole_moment: 6.680
 S          -0.01437111134130    0.78522374030028   -0.83608771313259
O          -1.21414382950061    1.53273951966155   -0.47258905613609
O           0.05320428633094    0.40738791265616   -2.22698981713381
O          -0.09391728381978   -0.55268161568923    0.00798593390627
O           1.20039331535147    1.43421943905669   -0.35311466244523
H           1.49851405321855    0.95374050494609    1.04472981838856
H          -0.97234589243063   -0.99363618519102   -0.17936495430167
O          -2.67807542561525    0.33468113587693   -2.35816698762029
H          -1.88327002475502    0.18780094331030   -2.88738615634296
H          -2.38390160770304    0.99639505963787   -1.70600609926245
O          -2.45055938620367   -1.50136792893270   -0.48290504284546
H          -3.02517750165594   -1.19181559215967    0.22092050312341
H          -2.65995838710778   -0.93837686782405   -1.27365796711930
O           2.38320530438563   -0.80361097190655   -1.51815048467764
H           2.86182965876535    0.01963549162993   -1.39051132526326
H           1.52806186984359   -0.52420021180782   -1.89086617497623
O          -1.11145146570242    1.20089301678327    2.14637994605805
H          -1.40641147973666    2.02809981047810    2.53168798747514
H          -1.19884842173060    1.31823063220591    1.17163052022375
O           2.11302961853622   -1.92063383933049    0.93464898730650
H           2.29986395987714   -1.58217445563702    0.02712117348331
H           1.28598639980814   -2.40003447653605    0.84077385939421
N           1.49069852690179    0.43246318130111    1.98447600420653
H           0.50481604869162    0.53213309929675    2.29789658452891
H           2.14965356733783    0.81518504542258    2.65348443428050
H           1.72317521803989   -0.57029636724342    1.71406067874412
