    26
        -50.45256345  Gyration_radius:  2.52869563256 Dipole_moment: 1.454
 S          -0.91525596276780    0.52605733233515   -0.54080251720511
O          -1.49100170350685    0.22739268893336   -1.82142048974067
O           0.00783425325503    1.63414883933531   -0.55273502025637
O          -0.21045660528469   -0.71860835004850    0.01589955319361
O          -1.99139539586356    0.81393181732691    0.49830870375870
H          -2.26928953575360   -0.04810363819704    0.99336384515965
H           0.59799391363877   -1.00731073851914   -0.61200379471255
O          -0.13553836259730   -1.27381389431432    2.79767957411695
H           0.11068765935547   -0.31704272863647    2.68683253838009
H           0.31311255894764   -1.72653086657338    2.07889001905776
O           2.49276490264856    1.26526912683477   -1.46289121156750
H           2.52134659542918    1.63943559135679   -2.34597704248223
H           1.63054915789684    1.53133139837746   -1.08615936146586
O           0.16664082736876   -0.74060116878678   -3.64332173933600
H          -0.49928503719359   -0.30276629066348   -3.07058157331569
H          -0.31336469144792   -1.39676740586492   -4.15171973922623
O          -2.56347595203729   -1.20378904075471    1.87780275212945
H          -1.64911394815124   -1.32940058719413    2.27726066601556
H          -3.13535612849564   -0.91811582601651    2.59408356830061
O           1.66723241199611   -1.25856259210229   -1.51731342037492
H           1.22290886097128   -1.21655077764025   -2.39623555413291
H           2.18932936544540   -0.42368586701775   -1.46032563021115
N           0.50188854078697    1.30024762114317    2.28916177779795
H           0.29740887515053    1.45564010737079    1.30526838725626
H           1.48376685831821    1.50661745548496    2.43009056522224
H          -0.02993144811131    1.98157780381147    2.81684515365261
