    26
        -50.46949754  Gyration_radius:  2.56214021901 Dipole_moment: 5.894
 S           0.47279433828219    0.26679160392883   -0.13683766952950
O          -0.02419789644166    1.33816411988385   -0.99349624513908
O          -0.22190588914643    0.51174522251056    1.23331668694020
O          -0.02064825083649   -1.03776932238567   -0.61995915640010
O           1.90114264202263    0.27060489656941    0.04632885662885
O           1.75834638188862   -2.48175078683669    0.75070016305084
H           2.56770182404395   -2.00598969627070    0.54237883048031
H           1.08451742200753   -2.09480675857033    0.16188262509514
O          -1.06317361456314    1.03166314334122   -3.40808599912157
H          -0.51161537430280    1.18282315334206   -2.60783855956319
H          -1.33653735683171    1.90139134257322   -3.70541391771399
O          -2.47104521044125    1.52764715009389   -0.03052612445219
H          -2.35506177383960    1.35785353392971    0.90844445283063
H          -1.55489060053509    1.66510758345534   -0.36239951091439
O           3.07274573877861    0.56978931430702    2.41485328885624
H           3.13346156170490    1.50798854451981    2.59898794096112
H           2.75621837329715    0.49353705104556    1.49028339246078
O           0.95048689322148   -1.03505347809474    2.84098027606275
H           0.20600474863588   -0.11976158310132    1.92585826503110
H           1.21987900960317   -1.75770947118048    2.22791123256357
H           1.76627322165190   -0.51363274151643    2.98058299656215
N          -2.30684274769509   -0.54229895452256   -1.66285192057574
H          -1.37413166321744   -0.88410002417622   -1.23766299043631
H          -2.65411496366731    0.19366884260246   -0.99408594334249
H          -2.03028135198258   -0.04887583751521   -2.54390959752494
H          -2.96512543163929   -1.29702681792420   -1.81944139281589
