    26
        -50.47562123  Gyration_radius:  2.39546288743 Dipole_moment: 6.101
 S          -1.00256663608199   -0.16546708023639   -1.47013485152110
O          -1.45320731108364    0.08024613694334   -0.09005299703127
O          -0.99150323066856   -1.57583454247298   -1.76981996917136
O           0.29711364085437    0.46866652072220   -1.68281702049776
O          -2.03399127987753    0.52696996790977   -2.40640514951328
H          -1.86255197444351    1.47479587723433   -2.23818020941523
H           1.65806384846515   -0.11855303385799   -0.93893824797052
O           0.73817074299674   -2.83886894087571   -0.30979644838013
H           0.84014818640720   -3.72704033062447   -0.65585136160843
H           0.07731893055990   -2.39379142148752   -0.90404967753629
O           2.27925853618232   -0.56398622950965   -0.31698656468192
H           1.79737356124566    0.02569696361366    1.02290716657613
H           1.98113898638152   -1.49041153240499   -0.31544559212201
O          -0.90731866231778    2.80154626130451   -1.61685345998651
H          -0.18884763104067    2.15598617043617   -1.74612315551983
H          -0.89395817925121    2.99726686485950   -0.67169609526375
O          -0.55443418305215   -1.58955856392305    1.76331338328796
H          -0.11684478697065   -2.25996840822505    1.21119529883791
H          -1.08061942453966   -1.06142373544671    1.12389251895939
O          -0.62423342782282    2.14085563293306    1.18399482926818
H          -1.31625499498672    2.35155844856892    1.81350259078411
H          -0.97503761898133    1.37181692182234    0.64842068524054
N           1.24637608413298    0.30170297649632    1.90880046377464
H           0.69231442085468    1.16070041481195    1.70772985846464
H           1.85244723020803    0.42264394831514    2.71186266054899
H           0.54164518266364   -0.49554928691560    2.03753130454867
