    26
        -50.46218803  Gyration_radius:  2.39349669885 Dipole_moment: 7.366
 S           1.50201731932869   -0.27600618357907    0.05771494900796
O           0.38999133877148   -0.54289655558010   -0.87024695548636
O           1.79632276174821   -1.40904828666852    0.88424259499569
O           1.02815949520220    0.93321833106778    0.92955467988408
O           2.65415585820307    0.27153444735997   -0.66579580162577
H           2.26354445561573    1.57516308444392   -0.95547500779767
H           0.09480352031303    0.71530553098008    1.29788784502202
O          -0.40495589478162   -2.07678856180640    2.28172879653225
H          -0.82051409047932   -2.55342906765887    1.54682874626204
H           0.50539271569585   -1.91078200876083    1.97257373748116
O          -0.98704610455332   -2.73618030361338   -0.36567118971456
H          -0.54925235847956   -3.51467053292549   -0.71173552009311
H          -0.39407311345026   -1.97612755108378   -0.56605048049806
O          -0.68751951564823    1.76688467506507   -1.25543370712388
H          -1.19615124370726    1.91142764822568   -0.45160430059479
H          -0.34050383245860    0.83663420464825   -1.18561424117845
O          -2.67613978014361   -0.52315153812161   -0.47690829278537
H          -2.33705144929962   -0.15616329170017   -1.29721999212535
H          -2.35360731749289   -1.43609412340534   -0.44102087037164
O          -1.29649473609609    0.33177230977728    1.69997097308573
H          -1.88326190700967    0.09161300106211    0.95039837822130
H          -1.07815468447812   -0.53472962731586    2.12712567686068
N           1.81365747604709    2.59941743309554   -1.10783663259147
H           2.20555198082159    3.06385897091600   -1.92081643651004
H           1.98077533350363    3.13350607538127   -0.26004085829603
H           0.77035378284548    2.41573193027043   -1.21655609059822
