    26
        -50.46798557  Gyration_radius:  2.47782274407 Dipole_moment: 7.275
 S          -1.32885179582924   -0.57722619147336    0.76317219518578
O           0.00368730865735   -1.03866457608569    1.17299083161259
O          -1.74549172155766   -1.21138599458294   -0.47620935282961
O          -1.38171516762334    0.87067956539435    0.68599165714103
O          -2.29063950491267   -1.04514380299134    1.90551192952279
H          -3.15161237760278   -0.70617486934565    1.59199246821893
H          -0.40111347327351    1.52428187189541   -0.56934095974734
O           1.53376046290241    0.84606577029883    2.22148228917238
H           1.80718704359124    0.50837453316792    3.07578692504414
H           0.84324501861125    0.22964309309849    1.89366855825124
O          -0.14462046853394   -0.64898085482924   -2.51070760246676
H          -0.87124270529059   -0.94580303833183   -1.92034204932602
H           1.00316335949924   -1.08965678578626   -1.66780189106355
O           0.21772513344635    1.67975999985790   -1.30965047790996
H           1.10310704801398    1.66239482760594   -0.92164807808455
H          -0.07797754292191    0.31930233073940   -2.33289924233201
O           2.77778078712163    1.13871801276916   -0.09814914833578
H           3.39963501150531    1.86729802533875   -0.09547017769863
H           2.37566637311094    1.10396261565792    0.80166024054071
O          -3.97641734776962    0.19095524133711    0.29268798344052
H          -3.63706792553244   -0.39365788222412   -0.39708876858938
H          -3.32277280204372    0.90225061144942    0.35533140869935
N           1.68899474265601   -1.27649492233551   -0.82973475137604
H           1.05242403251653   -1.30528192324640    0.01613929284493
H           2.31404648826563   -0.46493429239005   -0.71505717664743
H           2.20910004299848   -2.14028137499472   -0.93231609327369
