    26
        -50.47013075  Gyration_radius:  2.3932529039 Dipole_moment: 3.801
 S          -0.64846458373951   -0.20917401218406   -0.93882900899472
O          -0.86288967647419   -1.64975949196659   -0.87767430254497
O          -0.09647369920244    0.25641005830571   -2.19157262259211
O           0.45765005982512    0.08745075568853    0.16371796855168
O          -1.82271946097304    0.53120144416277   -0.50249777371908
H          -1.76549007079020    0.68631328030038    1.01646501110604
H           1.32876420364005   -0.09280363756028   -0.29974578302230
O          -0.78261792224459   -1.90191336542331    1.77797248555127
H          -0.92905606326688   -1.89844443655893    0.80670806032417
H           0.10375071627083   -2.25041725015542    1.89617653683452
O           1.36533570752746   -2.94554254739913   -1.45596653807047
H           0.49207895190268   -2.54804759040436   -1.24152756148112
H           1.24021144731238   -3.42514917266413   -2.27661373948703
O           2.40328940539412   -0.46589115631990   -1.41299521896419
H           1.81431740707117   -0.11349520005167   -2.09777307904781
H           2.28108089533857   -1.43803642616701   -1.44291616360359
O          -0.18952247544284    2.71457564413666   -1.02912017453526
H          -0.04228836887905    1.90130636295728   -1.54364398218333
H          -1.14296498149176    2.83176111374300   -1.03980088580576
O           0.49584916211196    2.48581833718833    1.58914519164757
H           1.33514913363040    2.02195540705797    1.54430756643872
H           0.26457537966632    2.66745812387692    0.64888918277084
N          -1.42585276010483    0.69645578465130    2.02951577986603
H          -0.62838395406419    1.39441434106512    2.02194768045358
H          -1.08632782992389   -0.28349786300863    2.17208818604110
H          -2.15900061311508    0.94705150671996    2.68374316446459
