    26
        -50.46798554  Gyration_radius:  2.4777995593 Dipole_moment: 7.274
 S           1.49849725881566    0.30777138220872    0.58437633306839
O           1.79498178518827    1.06574617642666   -0.61948907721755
O           1.11310760226338   -1.07186044602560    0.26092271901559
O           0.49396249788530    0.95339108644357    1.40848144129449
O           2.81358917637652    0.17695341513690    1.42252689833721
H           3.01832680897851    1.11180208334999    1.61876323990479
H          -1.00062762820876    1.20658197954226    0.59200848811302
O           2.48225114623345    2.79631143147957    1.39736249264767
H           1.59177593134665    2.56232823477525    1.69638439501313
H           2.44766035334114    2.71368044674995    0.43578050751127
O          -2.58829209491210   -1.51933011583671   -0.13402668945491
H          -2.01114758586602   -1.75012756347290    0.63159794241899
H          -3.49070092758252   -1.68933459237511    0.13858416515312
O          -1.74690035316446    1.23730421137153   -0.03842341876884
H          -0.94754954752904    1.50257420071652   -1.54677964395816
H          -2.16694210809587    0.36770131063364    0.00721126642849
O          -0.82711898789024   -2.04166838043979    1.77365333582911
H          -0.48101831207055   -2.85480159196780    2.14465305359913
H          -0.06714962953367   -1.59509413514071    1.34090117639173
O          -0.28725455557364    1.27518737901491   -2.24394545383671
H          -0.42646305390892   -0.20752192648527   -2.17943329606376
H           0.57628437040987    1.35283011242196   -1.78258367883396
N          -0.45213144721622   -1.25332403448363   -1.84275457965521
H          -0.21133844382149   -1.90885438842773   -2.57718776271809
H          -1.37743243434919   -1.45674648617040   -1.43669128928502
H           0.25163017888686   -1.28149976942969   -1.05189258493884
