    26
        -50.46433508  Gyration_radius:  2.45385295487 Dipole_moment: 2.423
 S           0.28936128344450   -1.35938280105326    0.01275762574045
O           1.11527965128683   -0.51244930070373    0.86264353553575
O           0.36193632637735   -0.94536842025238   -1.37884623099976
O          -1.08947400681373   -1.40497462313559    0.49790885285373
O           0.86082473900290   -2.80859631009002    0.06774092748259
H           0.59041312402010   -3.13224944355734    0.95030733095917
H          -2.01669676649880   -0.66666253745105   -0.74088914493192
O          -0.50132568583968   -3.21420428433866    2.29533416772113
H          -1.13023827557033   -3.93945868828371    2.29836766034877
H          -0.92611174136976   -2.47718117394508    1.81111478225532
O          -2.35151041334055   -0.18977243386986   -1.52525197171575
H          -1.85830372348753    1.42547737489841   -1.26525872262171
H          -1.82831847119018   -0.53361080302016   -2.25431422729050
O          -1.29468745395862    2.19001595540032   -0.99438472289031
H          -0.03068120383425    1.88365174433463   -1.60676590819230
H          -1.12811567449868    2.04287778997741   -0.03494240295355
O          -0.73329142040743    1.29265766623115    1.45815649225729
H          -1.49858118568348    0.76408032456571    1.69721508954217
H          -0.01322384487511    0.64189889747002    1.32787448614325
O           0.90667615056878    1.47700889269536   -1.91569892062478
H           0.75923236253325    0.47834815587366   -1.81458199568415
H           1.59676864939647    1.71863268362829   -1.10917929151896
N           2.37295769345833    1.84227284212655    0.10129035175288
H           2.12101723816169    0.94511531648414    0.52919984415785
H           2.04698945920501    2.58192353116469    0.71064724248965
H           3.37910317991639    1.89994962485749    0.01955515017518
