    26
        -50.45563586  Gyration_radius:  2.48982269487 Dipole_moment: 8.133
 S          -0.13703432354805    0.92955573912818   -0.40196593022689
O           0.20587713330473   -0.11793063334160    0.56974156628307
O          -1.52693532343777    0.94033594795345   -0.74726039011917
O           0.72119589028034    0.59037834182655   -1.67591878991031
O           0.39660164990642    2.22275794341256    0.02958910023001
H           1.77594822587978    2.05078321201245   -0.06815386048367
H           0.25024392992148   -0.18154428512024   -2.11431262577518
O           2.60193374144758   -0.22562007188783    1.58105824064867
H           1.68013555983662   -0.32347747205435    1.23300320537716
H           2.50115094204198   -0.07910927518029    2.52401945959485
O          -1.64888975767770    0.11088579372184    2.64227590325254
H          -0.94426122148433    0.07014500010245    1.98395121497500
H          -2.44415269191545   -0.16750839695014    2.17411275471452
O          -0.45379418619743   -1.49716362272949   -2.60036673338092
H           0.15809906242287   -2.17959080803919   -2.88452588525752
H          -0.87036740979856   -1.83806046582982   -1.75860211761043
O          -3.37642231003108   -0.58981440602817    0.38537155081238
H          -2.75045145708824    0.04310123206775   -0.02746593416537
H          -4.23640296535948   -0.39492305257194    0.01072458684974
O          -1.26018593758180   -2.23788921509559   -0.23457237398374
H          -2.15415400675832   -1.93117939472754   -0.00810969493683
H          -0.67109528767516   -1.59902530520105    0.20429476770469
N           2.83966613643933    1.70571502630467   -0.18358065238858
H           3.51037092581779    2.46187588331359   -0.09439275292957
H           2.87942501062821    1.27418821396395   -1.10464145244555
H           2.95349867062484    0.96311407094820    0.56572682317041
