    26
        -50.46322927  Gyration_radius:  2.39963750129 Dipole_moment: 6.334
 S           1.00330502374971   -0.77448044630047   -0.40632455251413
O           0.86454445798085   -1.86908343032885   -1.33541801967485
O           1.21343790823493   -1.22459501544549    0.97457738463505
O          -0.39786741667246   -0.01974569821503   -0.37721354968092
O           1.94081059176341    0.25700199117071   -0.79928908515822
H           1.45327643250318    1.68273035436797    0.03044467453958
H          -1.05054937787970   -0.51583135346447    0.16583412696965
O          -1.96144446691825   -1.34992263936567    1.27272375136384
H          -2.85028441484630   -1.49499528234737    0.94200880981642
H          -1.45448905687241   -2.17947789445995    1.05348383165660
O          -0.75136189913439    2.70512019276594   -1.58041491049345
H          -0.48168985704538    1.89105052277091   -2.05496103720871
H          -0.46549077888938    3.43144930465576   -2.13818783583286
O           0.43004013490623    0.65983339067413   -2.96453040800007
H           1.14337821314813    0.58727734134929   -2.30592102892407
H           0.09356572188898   -0.23529978093039   -3.04767360277373
O          -0.49278045783271   -3.34041563581024    0.39607395592842
H           0.20907205037800   -3.48136459332819    1.03722441309587
H          -0.03641924497978   -2.91389935248942   -0.36363521890418
O           0.89520018332647    2.34051891914834    0.49776125216102
H           0.19590086357473    2.55506618085387   -0.16671941519097
H           0.33618470835310    1.47982329823822    1.57158055243612
N           0.08127853434968    0.66890672939098    2.27448033499205
H           0.62021354349899   -0.17441680857133    1.86770826618822
H          -0.90945087628955    0.43481493717608    2.23300537686258
H           0.37161947984685    0.87993475844698    3.22338195373020
