    26
        -50.45830979  Gyration_radius:  2.54220043106 Dipole_moment: 4.404
 S          -1.60273522149226    0.33568594215479    0.26004631309459
O          -0.51474703763713    1.04243673377915   -0.39383927531661
O          -1.94617874806756    0.85759601964213    1.56569776426834
O          -1.30250461383062   -1.10589140495493    0.34325772948613
O          -2.83648153940914    0.48295298501281   -0.68642247879399
H          -3.54225888580860    0.00451101404554   -0.20821400614254
H          -0.00044424630207   -1.54883506371554   -0.21425755487678
O           0.96622636729491   -1.61909168103342   -0.58018653713940
H           1.46831738735192   -0.94615913804055    0.01975894888645
H           0.89949232259565   -1.06639695020167   -1.52069795896752
O          -3.92573342040711   -0.94815321893893    1.24385930971788
H          -3.49662578021509   -0.26059203051998    1.77536204139189
H          -3.24063578087208   -1.60767991301405    1.08440274456319
O           0.74191021210707   -0.04318521872643   -2.47279077179217
H           0.11945181351389    0.50069939675108   -1.94721514726320
H           1.61634690003635    0.43564761988917   -2.40703742917995
O           0.14581587109913   -0.22152564692383    2.82397287496144
H          -0.13069321283019   -1.14021280165536    2.83938458884972
H          -0.62785984337690    0.28243086325732    2.50153432841780
O           1.76399030026804    0.35985786539339    0.79729470187016
H           1.02857445520924    0.85756035310310    0.38086790862060
H           1.42589883836549    0.17818607096494    1.70119510291173
N           3.03729370149659    1.17029895413815   -1.84749162341033
H           3.91295671380498    0.79330173443971   -2.18700125261563
H           3.00774974640991    1.04086283153419   -0.84099645076392
H           3.03287372037071    2.16569467365800   -2.03048385112668
