    26
        -50.45382970  Gyration_radius:  2.45092385817 Dipole_moment: 4.805
 S           0.17735665959617    0.15955175097617    1.77849539883701
O           1.47403407964222    0.30593499723013    2.35528376876408
O          -0.11635450104924   -1.16357855958646    1.27292990727085
O          -0.00626737080783    1.16992824603704    0.61838012270857
O          -0.90672245722935    0.59311228923628    2.75380964273702
H          -1.77402759151213    0.36606712015882    2.26022544714284
H           0.52935178484240    0.89073691481108   -0.21672062649880
O          -0.19802251857137   -1.84132226576259   -1.24097143962283
H          -0.16714999977507   -1.66476661409047   -0.26977301009660
H          -0.16575154455211   -2.79273644632925   -1.34869976079102
O          -2.40464003115662   -0.10606271144868   -1.17358112326137
H          -2.05478658866232    0.74139646537410   -1.51004654065550
H          -1.71590716500775   -0.76424631643110   -1.34935805989961
O           1.28972937984659    0.41652849065772   -1.42158433841497
H           2.14184785855123    0.17979878459930   -0.95206776162079
H           0.84586235189372   -0.42920357363037   -1.61225676747403
O          -2.90483495835623   -0.14602406036297    1.40025942232112
H          -2.74953039105822   -0.05035761301374    0.41787564110071
H          -2.94928238407269   -1.09129343029584    1.56222340899511
O          -1.00255576221241    2.13361541092387   -1.88905648445828
H          -0.90709904764712    2.48420102919629   -0.99888598620918
H          -0.14461152528787    1.75833478752970   -2.11934256853961
N           3.27398261266905   -0.23821678894865    0.19286167687904
H           2.75003273187738   -0.06217793292645    1.05219533009586
H           4.09718379861622    0.35120920741184    0.21497393214644
H           3.58816258941601   -1.20042918129500    0.22283077851845
