    26
        -50.44836306  Gyration_radius:  2.51467535249 Dipole_moment: 0.688
 S          -0.80843749452792    0.25186159646985    0.84018087619612
O           0.14224153897819    0.39650331022289    1.90210166703479
O          -2.10631296961359   -0.21055531396817    1.23098719173992
O          -0.23011946637535   -0.71723194199242   -0.23711494596337
O          -0.88884216956851    1.56545319299399    0.06702413459707
H          -1.44896518564906    1.42018691073982   -0.80146644092883
H          -0.22338129868488   -1.64329895199907    0.17425622223310
O          -0.33716173616449   -2.95555196085563    0.97151940394721
H          -0.55564689845638   -2.64078903686021    1.88956204073285
H          -1.09849926077623   -3.46065134158698    0.67571993450606
O          -2.02776579196042    1.20954874042314   -2.13052018530934
H          -2.15710765041670    2.04933295532403   -2.57825419708936
H          -1.23058038013269    0.77175559401621   -2.56894384747194
O           0.21879050529565    0.20673121262845   -2.90682376560988
H           0.28038590206674   -0.49224323288064   -2.24746624319165
H           0.78815108648036    0.93525539345916   -2.55372337906562
O          -1.09185490432832   -1.74113738624909    3.17461176311063
H          -0.39524246788189   -1.09898740957880    3.35158946765925
H          -1.75698608220589   -1.23599392223031    2.67464834700734
O           1.48574063782158    2.07634842810289   -1.51039075802704
H           0.76237205195035    2.37328802526537   -0.94941941650451
H           2.05208146830438    1.53368919113233   -0.91063546906825
N           2.61214396835513    0.50783004548239    0.38629901298853
H           1.80699155075282    0.50634088981644    1.00991033714334
H           3.40810122431688    0.84684562258919    0.91248339237521
H           2.79990381239961   -0.45453062047816    0.13386485694768
