    26
        -50.45034912  Gyration_radius:  2.52702060932 Dipole_moment: 8.235
 S           0.95416887998027    0.15938097106147    0.84751222748860
O           0.00168534506196    1.17323711735760    1.17137453237525
O           0.81506481102750   -0.39836009340361   -0.48441945938888
O           0.88813974653995   -0.97926736026165    1.87044117508305
O           2.38200297299036    0.69073750930789    0.99670283909370
H           2.96437254700079   -0.12461481052897    0.74702050579330
H          -0.10922148731870   -1.03715789943671    2.21215046567553
O          -1.74888579058580   -1.42467461925724   -0.12002294950067
H          -2.31465865498785   -0.77021281067383   -0.60044992220459
H          -0.84291203928787   -1.22383624976497   -0.38875512753725
O          -2.90752063425893    0.54236889776151   -1.47595470962750
H          -2.70583062289752    1.35950243765482   -0.97562528580842
H          -2.31280693423369    0.58238303189207   -2.23264357335885
O          -0.22419070234227    1.21565736380980   -2.41930244183892
H           0.43399918443648    1.25960845238400   -3.11397176007199
H           0.13634771323576    0.62504795287621   -1.73374213427839
O          -1.54074650932344   -0.91608851795108    2.40319969696807
H          -1.68147547072770    0.03643328925801    2.42723872108783
H          -1.80235839351667   -1.20777217273749    1.47853479223013
O          -1.64516736055340    2.69923587459679   -0.43672979539029
H          -1.11176870081682    2.60114955002094   -1.23582607977427
H          -1.11256668572550    2.30436323383735    0.26830106644137
N           3.37350638636709   -1.54795403010340    0.28108989867462
H           2.61152491959414   -1.68744590380588   -0.37366368413177
H           3.24435800753016   -2.18091015105139    1.05971104134561
H           4.25493949280881   -1.75081106284328   -0.17217003937223
