    26
        -50.47114491  Gyration_radius:  2.41066254954 Dipole_moment: 3.614
 S          -0.68705086360598    1.80368024524044    0.54342050160481
O           0.70733647502413    1.78188661345519    0.95245051744863
O          -1.50448068241971    0.82104715555038    1.23597416462405
O          -0.83872908503009    1.72801477444562   -0.89945079928216
O          -1.25307022859120    3.21489069040887    0.98633850312250
H          -0.63281172573758    3.81566920346649    0.58764417962797
H           0.21588604652697    0.90726379239767   -1.96322549911954
O           1.13740101257694   -2.06003905649168    0.92901650409106
H           0.84496336466849   -1.40356737712739    1.62891342684781
H           1.43832998124477   -2.83468320228067    1.40533964476280
O          -2.58224453146253   -0.38971080331341   -0.80117736320133
H          -2.42585948242561    0.35388963102081   -1.39586287970052
H          -2.34332027185553   -0.01369119426543    0.07599936769023
O           0.81137006241426    0.23149720988109   -2.35176459722595
H           0.13856263739937   -1.01954673088471   -1.85146838356438
H           1.61080856966661    0.25706599629805   -1.77365923082761
O           0.41733380364115   -0.25563567892344    2.65551424808079
H          -0.48599821847136   -0.02354927789684    2.36846848100518
H           0.91858108335226    0.51942748217293    2.35761953387627
O           2.46869141862385    0.17096239012547   -0.29566199963291
H           2.25221428461111   -0.66666113554234    0.13539066127722
H           1.94945808498373    0.85055892293904    0.17548497381637
N          -0.40723106821543   -1.79606629530624   -1.31216195229756
H          -0.52088104756077   -2.63145782672310   -1.87489525161926
H          -1.34845375472158   -1.35808198705533   -1.07698962670221
H           0.11919413536447   -2.00316356158867   -0.44125712469619
