    26
        -50.44930108  Gyration_radius:  2.72419393738 Dipole_moment: 6.786
 S           0.15096930119759    0.61016047351638    0.52959659158491
O          -0.21965996031858    1.88818748722841    1.05533670621558
O          -0.66306091386190    0.20020141219150   -0.60744269848424
O           0.09171478537511   -0.47592922102835    1.59637913729201
O           1.60882246988076    0.63109735607223    0.10783409562841
H           1.91851878324527   -0.34818792617660   -0.14938426457123
H          -0.83742887683413   -0.45605260379541    2.09531653690830
O          -2.16070526953754   -0.29366996942467    2.64268814812763
H          -2.71795982327647   -0.23621619321376    1.83530627212433
H          -2.14258266054650    0.61900831757047    3.01382564918406
O          -3.19640315606115   -0.01170270114834    0.19312063177327
H          -2.31410985949669    0.16585932854525   -0.19084739463612
H          -3.52583842276859   -0.80079907827836   -0.24176801894645
O           2.33659561570406   -1.60039220953745   -0.72201606514367
H           2.82186342493681   -1.22845864267252   -1.49413595946187
H           1.50745471924870   -1.99028472329636   -1.07635338122737
O          -1.92437274115639    2.32301309644412    3.07485262325033
H          -2.62965546890077    2.84933053716494    2.69278171391548
H          -1.20922339395626    2.31029955714947    2.41008797756960
O          -0.07174242308511   -2.08629501778837   -1.78548990617348
H          -0.20568773280363   -1.95346061305055   -2.72549421932860
H          -0.37594433211632   -1.26414138296149   -1.34406797231487
N           3.36164488592277    0.04839477470418   -2.62091817879928
H           3.02714699456428    0.14431217480628   -3.57163058489707
H           4.37068225575988    0.12924317186680   -2.63709832808701
H           2.99896180924519    0.82648259529010   -2.08047914181799
