    26
        -50.47279769  Gyration_radius:  2.47517720562 Dipole_moment: 4.310
 S           0.77171830778606    1.29974394879187    0.41067295815573
O          -0.21552114572983    2.17741617598917   -0.18268933092922
O           1.41824095635698    0.45431506641819   -0.58563575449393
O           0.19615084194224    0.48929326918577    1.48616552009672
O           1.90692329846524    2.16829074120664    1.03673444344720
H           1.46376382264746    2.56347776595934    1.81192726928907
H          -1.10308024940985   -0.49300651522076    1.09399380274861
O           0.34450683597532    2.50242785408293    3.14394803931267
H           0.06601835187276    1.68935436436942    2.67339989880467
H           0.69596277937812    2.21865585730389    3.99094835876016
O          -2.15615685996248    0.90759884225738   -1.29689998301533
H          -1.43116597643328    1.44213096663609   -0.86918991564361
H          -2.84508194978488    1.53626912810046   -1.51772350721778
O          -0.13056994911539   -0.43802632306671   -2.57324138175422
H           0.54458011086289   -0.00971512100823   -2.00634258099115
H          -0.94850486566095    0.05257185680430   -2.38273141922058
O          -1.81524665386648   -0.99997871917315    0.64317273793268
H          -2.18194384245403   -0.37284436611569   -0.00524118441377
H          -0.98235000387188   -2.00026063798723   -0.21281760983691
O           2.11774768216806   -1.97043081225853    0.08468316360642
H           2.93967100790181   -2.10832337940620   -0.38958295254362
H           1.90341818749277   -1.01255776756823   -0.03193900515557
N          -0.31358461432343   -2.46090657672927   -0.91514023517154
H          -0.62290965983500   -3.38482576431105   -1.19232991947943
H           0.64061657044927   -2.47521908068353   -0.48171790271893
H          -0.26320296280839   -1.77545075357438   -1.73242351954055
