    26
        -50.46421063  Gyration_radius:  2.53066485937 Dipole_moment: 5.468
 S          -0.34261668254369   -0.66779420736799    0.12730760414019
O          -0.67291877902534   -1.61771576414620   -0.90868044444547
O          -1.52595263901049   -0.07020129433138    0.75219774898924
O           0.58135622544945   -1.16199444817964    1.13157310213372
O           0.42731643315835    0.53772367060887   -0.54675366593356
O          -2.96638390214199   -0.15425145111354   -1.46233580112004
H          -2.62507622159447   -0.03123163496729   -0.55447875828902
H          -2.70495257135598   -1.05468710334036   -1.68030515833196
O           3.04339609980564   -0.54072596817383    1.72150428852905
H           2.19476345727298   -0.92064880838672    1.38742892044380
H           3.35027903908476   -1.13769623196483    2.40544144979986
O          -0.55050304396168    0.57983624157872    3.04025449046315
H          -0.25335286878433   -0.28395509314143    3.33930615647225
H          -1.06494031864499    0.37640640694787    2.21198421013557
O          -0.03392590263990   -1.25511355484903   -3.45466123367421
H          -0.17293812912731   -1.47680955386076   -2.50864176334688
H          -0.39466469187990   -1.98686315291104   -3.95714559768014
O          -0.92522295982330    1.13076016051243   -2.56963493755975
H          -1.81053435406739    0.80403437186582   -2.27421311320425
H          -0.10923090038327    0.83873269840914   -1.38699706532774
H          -0.57944726779909    0.43585364142927   -3.16294904859087
N           1.44374755161082    1.56971337028098    1.67966307657669
H           2.25770873334783    0.92552397382185    1.83007411439108
H           0.65488041193475    1.27118755281882    2.34919760977136
H           1.69280152994079    2.54922756464203    1.76798892512300
H           1.08641175116293    1.34068861381140    0.72287492054704
