    26
        -50.45323680  Gyration_radius:  2.43755379541 Dipole_moment: 1.656
 S           0.53747266318084   -0.04492097087427    1.34633171655619
O           1.04039418714593    0.62296293190027    2.50834042062003
O           1.08744203711667    0.46440091897437    0.10847995690050
O          -1.01799212937223    0.11423011895545    1.28306215415439
O           0.69994741161901   -1.53317671466067    1.43541664303808
H          -0.17424128517430   -2.03325501176198    0.96050236762284
H          -1.23242953271296    1.06696588847897    1.05916120392892
O          -1.29394572851387   -2.50235844379726    0.38755221108935
H          -1.97473789629427   -1.91011126764088    0.72253362260040
H          -1.20397798599418   -2.29467501149324   -0.62344612797577
O          -1.37205783543298    2.60411683905530    0.71538355541364
H          -1.92022913073588    3.07911964627901    1.34371331022537
H          -0.43360028812118    2.89531010413668    0.88779954262555
O          -0.96362114697918   -1.81330595106325   -2.02861513691978
H           0.01846522959474   -1.91777995118043   -2.06409689378839
H          -1.11141760436646   -0.85035727438340   -2.04938936875539
O          -0.90935560067730    0.89511892784099   -1.65866240874725
H          -1.41034815649134    1.59842769060525   -1.23765944938855
H          -0.10081795278154    0.79229527543555   -1.12753965047440
O           1.13887120438253    3.00328200287902    1.31626110352772
H           1.21933680066729    2.25294515971887    1.93772718849426
H           1.65243385770081    2.74026469791977    0.54685519427334
N           1.69084852985002   -1.85431490345693   -1.56845141204993
H           1.66574352690249   -1.00155873472341   -1.01406689433774
H           2.43570638972976   -1.76329290813291   -2.24760882788993
H           1.93211045573825   -2.61033304895979   -0.93958401075086
