    26
        -50.46837079  Gyration_radius:  2.4800838738 Dipole_moment: 2.826
 S           0.07112083250879    0.55734341708821    2.17819924048800
O           0.91438403863527    1.14212886430248    1.13421856249570
O           0.58361592475794   -0.69585217343518    2.69216679328297
O          -1.31095125491457    0.48631259119942    1.76332689068872
O           0.15383960408609    1.58865101019052    3.38424247206567
H          -0.13537633470612    1.04860114374347    4.11150239210898
H          -2.34753287512181    0.50785994378679    0.37131367847443
O           0.99377407167547    0.02495925031463   -2.56484494364842
H           1.58077153000398   -0.00532702497510   -3.32042153884456
H           1.53969474771058   -0.25315424800043   -1.76989903111387
O          -1.16245096520230   -1.50804896205131   -1.48484183998055
H          -0.69973842831270   -1.84468202552571   -0.69859715341246
H          -0.48087407114429   -1.09861684360834   -2.03473324224151
O           2.24221111402432   -0.63728428932484   -0.38592758498985
H           1.94665841287134    0.05427868299266    0.23709196929471
H           1.78867740024415   -1.43982095455186   -0.08233923878639
O          -2.55865065504587    0.57648571864927   -0.58083391475416
H          -2.26637578527668   -0.28450774342110   -0.96071231111287
H          -1.35831438421242    1.40731182521782   -0.93051817935275
O           0.35453555827090   -2.31980466608973    0.68858311824253
H           0.39929591570640   -1.72253489411845    1.47729313839196
H           0.21902969952645   -3.20441080996952    1.03256349183895
N          -0.36011584773822    1.83582996076166   -1.05518857337680
H          -0.38953118514718    2.82638438352706   -1.26606647622417
H           0.13665685380659    1.30089279121767   -1.79325682568839
H           0.14564608299438    1.65700505207888   -0.14232088384576
