    26
        -50.46716916  Gyration_radius:  2.43132753221 Dipole_moment: 8.929
 S          -1.54981268668756    0.85280594694049    0.43762996590039
O          -1.58768006097114    0.75877669098340    1.88163814609221
O          -1.46442750295077   -0.46288716039424   -0.18268702243317
O          -0.41128475614247    1.69256520165118   -0.00091950894604
O          -2.83791378444602    1.54731753595878   -0.05693698114091
H          -2.62696401121697    1.73257144544195   -1.00860671638272
H           0.88967551090603    1.11055270021682    0.34614711231939
O           0.13984302004529   -2.37041666760368    0.68433803904923
H           0.30728074753851   -2.02630772131845    1.57147236206993
H          -0.59208419720846   -1.81293191674552    0.34426591625467
O          -0.31103755335628   -0.40043639832534   -2.58205681020232
H           0.57726322432701   -0.71670803070900   -2.39121928333328
H          -0.80650259463602   -0.53047714789961   -1.75058058434619
O          -1.67563653352055    1.98735006336956   -2.34732533336399
H          -1.35067402215572    1.16401967085045   -2.75080392304359
H          -0.97497158529172    2.23917444841839   -1.72808563678393
O           0.47568839828669   -0.49497105362960    2.77913245623749
H           0.46864023823157   -0.42117063608332    3.73505449796553
H          -0.36339322834894   -0.04525706786362    2.47139191525310
O           1.96320831569502   -1.50714872968908   -0.96621658264042
H           2.62096212860980   -2.18013506814086   -1.14498065591993
H           1.25173284945630   -1.94649531453924   -0.41643684352556
N           1.78632208170715    0.59160135991959    0.68836321555706
H           2.55859027276550    1.23973089261995    0.79639271594665
H           2.00478630175753   -0.16303362737941   -0.00451329486330
H           1.50838941756150    0.16191058403016    1.59554280428948
