    26
        -50.46847035  Gyration_radius:  2.51390785964 Dipole_moment: 6.114
 S          -0.34697295755440    0.62785598739905   -0.44895805128000
O          -0.94051966739332    1.79908200891599    0.18092542502283
O           0.84873859205910    0.19547205230025    0.30791130780751
O          -1.39495175400643   -0.50571221870595   -0.26181209959309
O          -0.06600198796640    0.78844258476073   -1.85212945080779
O          -0.40459900175585   -1.00421263857275    2.31390864033329
H           0.17922805429427   -0.72434381661397    1.57600716258110
H          -1.16432125512866   -1.40358736297363    1.88083548285412
O           2.11960701826401    1.66400880578716    2.12317926480993
H           2.81713510041055    1.11444067400328    2.48512038446199
H           1.77858992442742    1.18438573567052    1.33714811961635
O           1.83082016174518   -1.30348510578752   -1.67639462421924
H           1.61135120613137   -0.75866691709530   -0.89851431212641
H           1.75116550208772   -0.70510413071004   -2.42491889572051
O          -1.19501929017155   -0.67495861919284   -3.76353340809664
H          -2.05963881219526   -0.30606134694334   -3.94869221515193
H          -0.75419415318758   -0.04317211150422   -3.15743796990879
O          -0.61407872667152   -2.37444345247034   -1.76191686638534
H          -0.90430296337254   -2.01390014972713   -2.62444295486848
H           0.35867445087983   -2.22277542906317   -1.74343641410944
H          -1.11540907084311   -1.30384834105394   -0.85161031305308
N          -0.48501448488419    1.61358280690764    2.68441456099980
H          -0.75825128424039    1.79180366635033    1.64669157651286
H          -0.60262262405894    0.57786298023431    2.81427846220371
H           0.53895325844096    1.81664759341905    2.72974154647646
H          -1.02836520531814    2.17068676467105    3.33363563164441
