    26
        -50.46798561  Gyration_radius:  2.47756698843 Dipole_moment: 7.276
 S           0.63683683060595    0.70741701466682    1.33243285291416
O           1.22100288232185    0.98334935408122    0.01371001278909
O           1.03491897373453   -0.60271740515970    1.81919849421129
O          -0.80444706478408    0.87290850282424    1.31234878389487
O           1.24416685748009    1.79312967224657    2.28180073343183
H           0.81847222118916    1.57342439216081    3.13322196821017
H          -1.61346373486752   -0.29506051051298    0.33981868970359
O          -0.32063248056656    0.47394070824106    3.94981141876912
H           0.15499431824986   -0.31591069515784    3.66231020753545
H          -0.98060804033205    0.62807279982551    3.25858372232411
O          -1.86238352826261   -1.02295982647344   -0.26302683289655
H          -1.74146614813443   -0.67737639093756   -1.15784858049789
H          -0.70578292201282   -2.24443901543255    0.13220943656532
O          -0.39412740684576    2.27027168551420   -1.63859612382715
H           0.09466182449556    3.04467768040976   -1.92145387225923
H           0.12723440919481    1.87156616943614   -0.90830222678949
O           0.21552303059362   -2.57640057192649    0.25309275096295
H           0.57330273319478   -2.01566698814219    0.97573066614482
H           0.84081711641323   -1.86222844203779   -0.89632419304572
O          -1.01353058236906   -0.01398148064131   -2.82692569999173
H          -1.70308681955129    0.08582984586318   -3.48427313428788
H          -0.84720444561481    0.88210391905135   -2.45008814651279
N           1.19484870162207   -1.09322055740847   -1.59698896535822
H           2.05143498649642   -1.35677537503125   -2.07019783594442
H           1.33632818346353   -0.24023288251131   -0.98540586651424
H           0.44219010427275   -0.86972161294183   -2.26483824954420
