    26
        -50.45587495  Gyration_radius:  2.39376635747 Dipole_moment: 3.219
 S          -0.54157142536098    0.04774567815010    0.88103241442999
O           0.52914067297967   -0.26650664314665    1.81062702911153
O          -1.63961463934782   -0.88722307449685    0.86173311727664
O           0.11624554522904   -0.00077318066579   -0.55514440750573
O          -0.98677176064738    1.43949705129161    1.02999949427524
H          -0.24683300340227    2.31050792992430    0.24700209787889
H           0.06866528049219   -0.97542441480885   -0.82938733156084
O          -0.24316898215697   -2.49122671176503   -0.90048864265333
H           0.38589337345657   -2.83607368741521   -0.21177604527645
H          -1.08605189361797   -2.39906056532749   -0.43692162229231
O          -0.62960828531936    1.74512676836163   -2.49215473039208
H          -1.45039097425649    1.39853959196530   -2.06498508581407
H          -0.10681360217311    0.96196406581241   -2.68719872016814
O           2.27466556756146    1.40352738004138    0.73893234373345
H           2.67628086086594    1.87476268923617    1.47261237874003
H           1.68763138062871    0.72119532266498    1.14238411848620
O          -2.68252509018380    0.72174317107045   -1.06846061698687
H          -2.39654960640477    0.05437720850484   -0.41872154132568
H          -3.04887403030121    1.43681678130418   -0.54226554316432
O           0.43992799500971    2.77682383191062   -0.43824338918391
H           1.28979298488439    2.29256447587283   -0.17254842179748
H           0.08868154610146    2.41565148942485   -1.35365280149226
N           1.26579780171054   -2.98021821780961    1.24696256881396
H           2.27345952019856   -3.07320373685724    1.22063767334747
H           0.91285778621548   -3.64571719027785    1.92333481553666
H           1.04973297787012   -2.04541602295269    1.59669083802051
