    26
        -50.44950095  Gyration_radius:  2.73865200935 Dipole_moment: 8.550
 S           0.53278197142761    1.71746650991453   -1.41334052318524
O          -0.75741621739450    2.04315610219231   -0.84744427199679
O           0.48928098015421    0.49482172483705   -2.20757557918470
O           1.57618622062661    1.61634223633815   -0.38119512809215
O           0.93572891354767    2.89106529106615   -2.36074889755006
H           1.87284481862116    2.69621834001204   -2.55210622558090
H           1.32641592065571    0.33879040799423    0.56196767731685
O           1.03955052576105   -0.49671530006697    1.01722538643732
H           0.70195586915526   -1.06456649407876    0.30141334964357
H          -0.16374813175824   -0.18953315283933    1.77302675754931
O          -1.14771994327233   -0.11430621660400    2.15497658167090
H          -1.39308912366334   -1.06340431371213    2.43316014980568
H          -1.72277542028070    0.07498350151532    1.26275019370221
O          -2.27630560911726    0.13301499580031   -0.03932441999501
H          -1.82446653750621   -0.59537766056577   -0.50519631491227
H          -1.83284017873904    0.95397884425318   -0.39120919429691
O          -0.40700220197283   -1.57628579894697   -1.04941955905125
H          -0.34894731729121   -2.29963160330733   -1.67517389203256
H          -0.05729520231145   -0.77339976690281   -1.54908333116702
O           3.47076189090640    2.13887504248817   -2.09817729292384
H           2.94581700665471    1.79837876784653   -1.34242807665335
H           4.04017949005678    2.82445771445175   -1.74190983664097
N          -1.70447531531182   -2.62460950760256    2.64210023953998
H          -2.19210347018368   -2.83359786822488    3.50398814328664
H          -0.83250836997889   -3.13960658661250    2.63538714332964
H          -2.27081058878894   -2.95051518926460    1.86833692091894
