    26
        -50.46610759  Gyration_radius:  2.40592605178 Dipole_moment: 4.815
 S          -1.44912891114697   -0.47529850003191   -0.21412323813934
O          -2.63084445118269    0.00704467911362   -0.87555681042548
O          -0.60530561842228    0.62628880312161    0.28457510713042
O          -0.53136069398082   -1.19863699329901   -1.29992288268544
O          -1.65558282830987   -1.47404718551539    0.80636048275948
H          -0.51781721569021   -1.83829889396701    1.95515780862987
H          -0.21052003508872   -0.45955744624452   -1.91282491015249
O           0.33907320608690   -1.81728482257858    2.44943345136059
H           0.36614960370423   -0.91101862111387    2.82460675498494
H           1.19616933414695   -1.75219768306643    1.24809398377457
O          -1.81666486990865    2.12691767185263   -2.14930983635588
H          -2.17525079436399    1.39816880630770   -1.58662589755215
H          -2.45319778428843    2.24466377086368   -2.85716526588903
O           1.90361760365283    1.04081091333879   -0.11090506792281
H           2.21094208259301    1.64284629910530    0.56938790093084
H           0.91781786323391    0.98839942723651    0.01112025953685
O           0.09970278003886    0.82427568128146    2.81419604732276
H          -0.63577189617738    1.12460483961805    3.34965214785197
H          -0.22696487539524    0.81980675090703    1.88532058480959
O           0.39284959094857    0.77766126649353   -2.62108196645351
H          -0.37149797298681    1.40114740899788   -2.53344530753458
H           1.08550237478348    1.11741059865699   -2.04227950982421
N           1.62570554067924   -1.60922653276009    0.24218535025308
H           2.33029923270763   -2.30450937534725    0.02088598162761
H           1.99644352672348   -0.63513105693066    0.15618499592807
H           0.81563520764291   -1.66483976603874   -0.41392017396316
