    26
        -50.45587495  Gyration_radius:  2.39346776983 Dipole_moment: 3.225
 S          -0.24897135362418   -0.75740588398005    0.66216465511920
O          -0.62017932790283    0.06416458098186    1.80091077947662
O           0.86874493150732   -1.64370755778598    0.87550825197281
O           0.19029957112532    0.25731801134125   -0.46694997708630
O          -1.41699908074793   -1.44619598468293    0.09769851793320
H          -2.06730861411681   -0.67629743163903   -0.85373200399202
H           1.16985017337429    0.44229527036427   -0.28258138591760
O          -0.38472288423692   -0.21886315475470   -3.07412027183934
H          -0.03457438370069   -1.05635695377818   -2.68391033709686
H           0.24537425020205    0.45670615558824   -2.80706236215084
O          -2.12318909838025    1.73527085178713    0.41175837895170
H          -1.52825575869188    1.18126992123898    0.97063076426994
H          -2.93418546412354    1.84278665610102    0.91411800463407
O           0.48745221554327   -2.38282044910034   -1.71519941276145
H          -0.25592201022535   -2.98539105701988   -1.63283232436736
H           0.74394429669588   -2.17569755231837   -0.79836018212645
O          -2.38566169740891    0.08286885522857   -1.54672290729873
H          -2.28677428042464    0.89824338578407   -0.95235793739619
H          -1.61361100211023    0.05177868240430   -2.24993001056000
O           2.61389063692256    0.41135354934230    0.27601740856771
H           2.56967215282028   -0.52739913626568    0.50077304229151
H           2.48032582993065    0.88348181962599    1.14104772482239
N           1.79909513755914    1.35913207943429    2.63482436390651
H           0.89461458707998    0.90749321007174    2.49081748533054
H           1.62730908715432    2.33951193454315    2.81953787930123
H           2.20978209576319    0.95646019750835    3.46795184603658
