    26
        -50.44724176  Gyration_radius:  2.68829198917 Dipole_moment: 5.430
 S           0.03269355484942   -1.52798442117929    1.04006863144225
O          -0.67311587465933   -0.64405936414223    1.92605780316401
O           1.36415096202618   -1.08628362103789    0.69582796355459
O          -0.76845425681342   -1.74806507151006   -0.24636257842864
O           0.08796018699223   -2.92876644318236    1.65040831426169
H           0.67707063142373   -3.44451866311982    0.98152527202743
H          -0.72619492995043   -0.91625416557629   -0.90832506751873
O          -0.56931971680251    1.95994466131626    1.66574921738936
H          -0.62158320968590    0.98973435034806    1.82893176837694
H          -0.55704404647959    2.38431621225554    2.52505489783933
O           1.31235428647240    1.41224754828381   -0.31498117122394
H           1.58580262113965    0.55619629983995    0.05863340888501
H           0.79945777454204    1.84107837839811    0.38888511108101
O          -0.62043694543975    0.25649505174002   -1.70975704814140
H           0.19447398090270    0.71248727807717   -1.38084556473349
H          -1.35028525330208    0.85549943512949   -1.45246019198976
O          -0.04481624157686    3.70339962074677   -1.72010881596047
H          -0.87463248108230    3.28386826612066   -1.47094739145453
H           0.65556197141456    3.09597133921114   -1.46483979198727
O          -2.20913549073873    2.07231484889983   -0.50092686449678
H          -3.12582171905739    1.99959518005913   -0.23311846282418
H          -1.67539182927384    2.13342366718152    0.31543637054199
N           1.62068619306437   -3.76131725055199   -0.21520844534718
H           2.02450744470427   -2.82971414189811   -0.24789563269141
H           1.10253242732191   -3.92082204225994   -1.06908530514312
H           2.35897994001057   -4.44878697313847   -0.14171641662544
