    26
        -50.46300534  Gyration_radius:  2.42060694866 Dipole_moment: 5.784
 S          -1.09181036216388   -0.97174542205535   -0.12758721779573
O          -0.81221897334172   -1.89911420997515   -1.19190918113138
O          -0.88034306934345    0.42188119953758   -0.53573004266397
O          -0.09198900968554   -1.22518138260889    1.05528140238216
O          -2.40003984477207   -1.13911841965574    0.50244067232518
H          -2.20462636371701   -0.51265232371030    1.75363157489120
H           0.86780425772400   -1.18159944116959    0.70716023955491
O           1.47281173913331   -1.56031740992174   -2.38637932395932
H           1.67606106033005   -2.34279786866447   -2.90086789464228
H           0.57066988993464   -1.70831691060678   -2.00592295480411
O          -1.12979734438622    2.19292198412049    1.39501901122707
H          -1.20711486378791    1.66835704989426    0.56524683325784
H          -0.21491606348045    2.49559928900722    1.40398644269238
O           0.84575411752422    1.17174538888171   -2.72605013628115
H           0.00537786141900    1.02736900712323   -2.27422797578182
H           1.21405227062701    0.28730781468196   -2.85453648690986
O           2.25163422526929   -0.92338292163269    0.13120648289420
H           2.23043852264362    0.05855664542152    0.12945391057421
H           2.17649023833308   -1.19201348933311   -0.80539258254513
O           1.47051952702189    1.63467077691486   -0.06098130006457
H           0.61018822704233    1.19146548832872   -0.20609061466362
H           1.71359791378025    1.92271102315180   -0.95194014035199
N          -1.86416466012020    0.02085978166185    2.67352182528413
H          -2.59029501424446    0.07029663372713    3.38098419597429
H          -1.57032234572833    0.98476550730403    2.32930037629995
H          -1.04776194578235   -0.49226776961602    3.00038288372888
