    26
        -50.45100476  Gyration_radius:  2.52664545238 Dipole_moment: 1.968
 S           0.03666774355980    1.58216238342234    0.24690758601961
O          -0.20125564866729    2.47289806153627   -0.84580314763885
O           1.10152381142207    0.63609448963113    0.01207893899104
O          -1.25762535217024    0.80126735554019    0.59764804734417
O           0.28725191310329    2.35869235362984    1.52718244893075
H           0.12516601761105    1.69384857716075    2.29433145405475
H          -1.52797682930143    0.19305993637046   -0.16881024311657
O          -0.29860727643394    0.66222499226369    3.29297588404340
H          -1.25076392150143    0.60589747455459    3.18000183503798
H           0.04028421349826   -0.26118283036458    3.12160923269628
O          -1.90718203677402   -0.62996714750954   -1.40940560186627
H          -2.83928860008815   -0.52253054678716   -1.61068691261524
H          -1.40898053280340   -0.12186349844588   -2.12523261354307
O          -0.59324859289267    0.89884010414313   -3.01046081182937
H           0.31725867982286    0.54633212292977   -3.07159234374881
H          -0.52129507226152    1.65759465097643   -2.40467108104095
O           0.48065581612822   -1.79243655340015    2.80081951907922
H           1.41683137476544   -1.91455891912645    2.96623512879468
H           0.34347785109228   -1.99165124824233    1.83291878451749
O           1.97068825833586    0.20398565828665   -2.50355965515191
H           2.62154768907968    0.87510675171563   -2.71577867684185
H           1.75587222681600    0.32269289153712   -1.55895550463432
N           0.31274549535226   -2.12973977137393    0.16171949042020
H          -0.60309399033836   -2.11970450848827   -0.27161341592974
H           0.87460376248435   -2.81277896191186   -0.33105975635853
H           0.72474299017024   -1.21428381804976   -0.00679859561522
