    26
        -50.46395448  Gyration_radius:  2.43755686769 Dipole_moment: 6.748
 S          -1.09345914909124   -0.71404842418503   -1.30932948581223
O          -0.87217486916982   -0.08743951783377   -2.57869259752050
O          -1.07721891205503    0.27581000552372   -0.20481000446150
O          -0.06398477749203   -1.73646844440460   -1.01796463305501
O          -2.46864571137847   -1.40508341004867   -1.29018767587334
H          -2.70722685416427   -1.51210282700680   -0.32088875941251
H           1.24276596854107   -0.97664367900233   -0.95307001565981
O          -2.75651970406192   -1.38236050928353    1.26574127973456
H          -1.96142386602949   -1.89695073036714    1.54068836416525
H          -2.47734843565619   -0.45980797262486    1.26315403143094
O           0.54141701071760    1.91460550234141   -1.46309919925531
H           0.25804055388667    1.82266477905070   -2.37946188509350
H          -0.16330398526624    1.42578064462188   -0.97348948220289
O           1.37324532597257    2.92395972951077    1.00195392077453
H           1.14577409816267    2.78998773411344    0.06937318548565
H           0.87816525226795    3.68922187795631    1.29775917302249
O          -0.30169100988506   -2.37329830104915    1.57266348885094
H          -0.17172284102943   -2.30289547214246    0.60574687913615
H           0.23169436889480   -1.67451741347957    1.96586310298084
O           0.87016055707392    0.31348829130761    1.60617361585054
H           0.05122281904313    0.29554654996482    1.05971410530365
H           1.08637793853053    1.25963747151663    1.69427833010966
N           1.98609595663297   -0.23698471611447   -0.69613967655315
H           1.69811962782093    0.64426349920800   -1.17618874186887
H           2.93179234460199   -0.52493326370277   -0.92103136440323
H           1.81984827456349   -0.07143139439973    0.34124401331590
