    26
        -50.46395457  Gyration_radius:  2.43765281685 Dipole_moment: 6.749
 S          -1.67672544650094   -0.75585082546889   -0.19646871149662
O          -0.49322711981037   -0.74270509935100    0.69749988886749
O          -1.64746065747872   -1.87604044107444   -1.08924730113185
O          -1.70459085303009    0.52813452060315   -0.93185922109872
O          -2.92927481316646   -0.81967604714919    0.69589852922067
H          -2.72631778185332   -0.24381886936254    1.49284627091275
H          -0.40638362876096    0.57128192589631   -1.70669591296132
O          -1.98596344118627    0.62587255423515    2.60283271379207
H          -1.17472506324331    0.10722624719790    2.55920609640406
H          -1.79073884060181    1.46115353004424    2.11622536210811
O           3.27561600004137   -0.82676954033122    0.17561517888284
H           2.65580015023932   -1.40001544167470   -0.30045123632218
H           3.66946891711159   -1.36223263120881    0.86570536279154
O           1.39289480142363    1.12055833901203    0.48746214708619
H           2.22482597279399    0.61746436615086    0.55373012024829
H           0.69013618924324    0.47055410849984    0.71800456352722
O           1.04234503195352   -1.98809881049431   -1.02929458144734
H           0.50913891433743   -1.63460119158675   -0.27703203634540
H           0.42855660290123   -2.60234168623502   -1.44686760334209
O          -1.18780249753171    2.46368333740911    0.84579978701221
H          -1.47642417107972    1.87143577158084    0.12280414460935
H          -0.22500945988795    2.44143092572382    0.84158192340190
N           0.64492605223426    0.52236138503822   -1.94818008017847
H           1.11123753266004    0.98185939341578   -1.11012688529003
H           0.87248821373978    0.95628111498156   -2.83567133930243
H           0.90720937526198   -0.48714693611467   -1.90331718989587
