    26
        -50.45003882  Gyration_radius:  2.67908909108 Dipole_moment: 2.105
 S           1.32820097714193   -0.14100807423281    0.68028632225748
O           1.33862847322350   -0.01959356153991   -0.75800689624188
O           1.73850618333770   -1.41657577764083    1.17852820536094
O          -0.10928771246920    0.18394191304453    1.17104770422832
O           2.17752325836485    0.93715475009700    1.33206887641190
H           1.86886931556293    1.88504314506224    1.04877060248875
H          -0.70859559700852   -0.21897057333973    0.46649852701045
O          -1.24498182678606   -0.89891623653591   -0.83328148253467
H          -1.37399349607895   -1.86990520755909   -0.67753878157134
H          -0.39919766131214   -0.80550417788511   -1.29352457451062
O          -1.47324309316629   -3.45870406523941   -0.23644550345819
H          -0.77138504193291   -3.58993759650200    0.44387870912185
H          -2.29938012361015   -3.69922929342997    0.18625047265126
O           0.62985664457978    2.41287258391582   -1.72471556028060
H          -0.34491625257310    2.35465938066326   -1.57520787429938
H           0.95919617137935    1.50578905055627   -1.60099917205142
O           0.40616701394604   -3.67429214090288    1.63750836308478
H           1.07189058318528   -4.35680650372265    1.53245405568750
H           0.88707414502328   -2.82576200537473    1.56153853400074
O           1.48443765442329    3.22395268787247    0.54924495193994
H           2.28037717588114    3.74535911985676    0.42432946698342
H           1.12967631458156    3.01453288352036   -0.37809420867295
N          -1.92456442334918    2.02038038772086   -0.91553205680045
H          -2.05464779236512    1.02567054112905   -1.06663586389363
H          -2.75552593398968    2.50070841604423   -1.23590779147743
H          -1.84068495598587    2.16514035442400    0.08348498455760
