    26
        -50.45019349  Gyration_radius:  2.44080936445 Dipole_moment: 4.617
 S           0.76866105281962    0.31411616037718    0.60460155631186
O           1.09827977496091    0.68829373344976   -0.75247373918432
O           1.62482796056468   -0.68452623474505    1.16569017383440
O          -0.69736057222251   -0.15971403317578    0.62378241441264
O           0.74009420302753    1.56352584843963    1.47235085714740
H           0.38364730904784    2.31083606538912    0.86309586926577
H          -0.83612258418783   -1.01538520353677    0.00146809046075
O          -0.89480757552309   -2.05847123693313   -0.96049497746465
H          -0.84174257288793   -1.55270284253266   -1.79495012414952
H          -0.01966783491034   -2.50458500301419   -0.84564108122492
O          -0.09649123785491    3.17614102517532   -0.27704627929798
H           0.58979625592627    3.01776619443927   -0.93251205099234
H          -0.90909156183455    2.72829611573755   -0.62535274763089
O          -2.01322620317092    1.57509991930620   -1.17298476875158
H          -1.66968876612072    1.07034966943546   -1.92495276912339
H          -2.01546578031621    0.96415278396547   -0.42670611291575
O           1.56192574993251   -2.84126578262620   -0.40526884130734
H           1.72750040856253   -3.61859561074677    0.13273929074684
H           1.74778659546347   -2.07020112358922    0.16639655884274
O          -0.38770797808785   -0.10264813526797   -2.75938525451955
H           0.25134308327756    0.21083989596391   -2.07831180536522
H           0.09126694991760   -0.13990771724918   -3.58891017524570
N          -0.08337294664837   -0.38192407167744    3.61186928676032
H          -0.90564125765669   -0.39545115223801    3.02021207535789
H           0.69326635301456   -0.68170161515555    3.03453201239430
H           0.09199118491512    0.58766234080478    3.84825253164280
