    26
        -50.46847040  Gyration_radius:  2.5139403389 Dipole_moment: 6.113
 S          -0.83854008796025    0.10505038957956   -0.04250310793437
O          -0.21535140678198    1.28999496072839    0.74845487524902
O           0.30405942380686   -0.72327388814036   -0.48731344864206
O          -1.72911601404687   -0.62663983397624    0.82071396796382
O          -1.48855246454042    0.71849529078164   -1.19229418381830
O           0.48272780993616   -2.09313224605435    1.80184044734106
H           0.49423094314886   -1.70626997759852    0.90725519059938
H          -0.43640877268691   -2.33153348633771    1.95371370101914
O           2.02591573569174    1.24328408492347   -0.93658252978765
H           1.54767108979078    0.42461401863367   -0.68216561546477
H           1.82142026657786    1.86857766347800   -0.23557373211541
O          -2.17362500913223    0.00520671029304    3.36489855321498
H          -2.12982752335613   -0.29359521007957    2.43234659502472
H          -2.82057140487725    0.71147485268736    3.38741962230207
O           0.72927331316115   -1.52068922616423   -2.98725787859557
H           0.49473597343950   -1.39133121179800   -2.04254687617854
H           1.56406994848358   -1.99253439288915   -2.98931841287101
O           0.46860117563839    0.30971323328103    2.96742391364760
H           0.09150345882260    0.93835891018017    1.66774230553561
H          -0.41075263922176    0.26243172221193    3.39482897920287
H           0.66507645581310   -0.61719537248761    2.69949255791042
N           0.31712296922370    1.11183930038021   -2.95127084113279
H           0.50809694436568    0.13891333009590   -3.28101310995715
H           1.11703852054013    1.39252080476211   -2.33093869318030
H           0.14225884584868    1.76015401482310   -3.71033794384171
H          -0.53105757168544    1.01556556868611   -2.27701433548975
