    26
        -50.47393305  Gyration_radius:  2.40337339734 Dipole_moment: 4.924
 S          -1.48877896160235   -0.73199917402639   -0.18996291696842
O          -1.27180483385767    0.72092214427143   -0.31658869535409
O          -1.81715176999606   -1.10911917605125    1.16372036898874
O          -0.32657927594444   -1.45308681678817   -0.70686124387989
O          -2.70709458486449   -1.08260890400733   -1.08765324942672
H          -2.47626882508099   -0.67878969341656   -1.95016695025086
H           0.98420438684396   -1.70545605348360    0.31673345345063
O           1.72378907019407   -1.56124985793497    0.95087753157664
H           2.20321789626483   -0.15781195357854    0.47682457570591
H           1.28240119657444   -1.40224126359375    1.80329194586568
O          -1.88992010358674    0.33011685384884   -3.19244909767795
H          -0.92664241047452    0.42885370752861   -3.11460247204208
H          -2.26741393010822    1.17890757446740   -2.94792797720818
O           0.65301114741588    0.58155460999666   -2.01234969267323
H           0.60991811998253   -0.38391831762682   -1.88690446244079
H          -0.07416109406652    0.86726219854032   -1.40282079958446
O           0.02661625149964   -0.66671393325602    2.91027950097547
H          -0.27421261717117   -0.97229199712671    3.76738739497016
H          -0.71597371366901   -0.86435980844487    2.27694672950610
O           0.24863586721419    1.73583341239542    1.61008933719965
H          -0.44215036179641    1.49766852536808    0.95352339138360
H           0.18783708295651    1.04129754594976    2.28922771049757
N           2.23194264921281    0.86548768563327    0.14580316235306
H           1.53067446993269    1.37360381806347    0.77809099732499
H           1.83482112968995    0.88131731881861   -0.82325172281165
H           3.16108322431948    1.26682155442262    0.18874318060087
