    26
        -50.45019346  Gyration_radius:  2.4407621769 Dipole_moment: 4.621
 S          -0.13587931108117    0.60782636892115    0.81689927864724
O           1.25527537616763    0.21508289787474    0.79004545578546
O          -0.87640177163038    0.08254136102803    1.92182880997802
O          -0.77702568222464    0.17527367789418   -0.51597115765521
O          -0.22560217291438    2.12572616048900    0.76745847211819
H           0.55918927943483    2.42627836459771    0.17508915474436
H          -0.73476913743695   -0.88344369199920   -0.64055466136810
O          -0.48632926405677   -2.27940244993578   -0.72846435193717
H          -0.57471371754877   -2.57198724716069    0.21206949762568
H           0.46865709728611   -2.29127542768029   -0.93496333385984
O          -0.68902911901640   -2.57962180251506    1.88424384462747
H          -0.72144037040106   -1.61789133994483    2.05714316292215
H          -1.47939867828933   -2.94963540521299    2.28374330892447
O           1.80690154348549    2.54196248847809   -0.66614536462753
H           2.44523077483439    2.07776457244916   -0.11585744363147
H           1.65233550552904    1.95628597612697   -1.45060326049021
O           2.11353633792221   -1.55904221085377   -0.93602021026149
H           2.90305712172958   -2.01649932822777   -0.64229861351655
H           1.88055315533224   -0.91500087372694   -0.22798172321355
O           1.22768793930776    0.65896420622496   -2.44315718291902
H           0.30568101841537    0.53613903704089   -2.18823472691139
H           1.68179811851289   -0.15785381106829   -2.18867759841164
N          -3.18280050493460    1.58850405598699    0.73642964084819
H          -2.84000018588416    2.54005658529082    0.79635754915491
H          -2.91963500332764    1.23882751861156   -0.17721083516846
H          -2.65687833920059    1.05042033742756    1.41483230872961
