    26
        -50.45691619  Gyration_radius:  2.69765509678 Dipole_moment: 6.664
 S           0.35120105090679   -0.81201039524107    0.73125425671595
O           1.19869876151721   -0.40103355782318    1.81536134893345
O           0.15744839296678    0.25365094925964   -0.27790136351225
O          -1.10027156323235   -1.07674696346616    1.26766409961759
O           0.73607845550823   -2.04953268884484    0.05853026206921
H          -0.30602826782503   -2.05781634577338   -0.98159176191342
H          -1.14571130763886   -0.69291304587570    2.20115202274583
O           1.55320681551684    0.44280389022439   -2.52365068987652
H           1.68073664553143    1.38305816432589   -2.66050383226554
H           1.11295460581753    0.35437879637316   -1.64999947846078
O           1.08401503116977    2.32263196229186    1.13402803230827
H           1.70031804480397    1.82459431989018    1.68021445481026
H           0.71095353411543    1.64769723217923    0.53468720740707
O           0.22716624800706   -1.35198220654263   -3.95047043383759
H           0.86107797050180   -2.04044584375196   -4.16066344555896
H           0.75512372185469   -0.61780497022174   -3.55353626385215
O          -0.84109182581202    0.02599174614488    3.55032549867106
H           0.10925320841446   -0.09290150835079    3.40663898948824
H          -1.00680061548004    0.98370369544476    3.40342263457570
O          -1.03094885660874    2.59059916764202    2.76025080506180
H          -0.22816312307814    2.61603317899864    2.18982967090474
H          -1.75846267565547    2.89239509867990    2.21523184910521
N          -1.06780014492969   -1.66102056005180   -1.66078452179418
H          -0.67744254849969   -1.63850534891447   -2.64569257115639
H          -1.12159454537157   -0.69648684603786   -1.30055571306715
H          -1.95391703249181   -2.14833793052791   -1.58324105710522
