    26
        -50.44327226  Gyration_radius:  2.43017633169 Dipole_moment: 0.460
 S          -0.90587760048136    1.10313617275118    0.93799280230039
O           0.41854120396838    1.39633600248053    1.41855461888469
O          -1.89857875509826    0.96021633738835    1.96284108898299
O          -0.86251553199195   -0.21606667040009    0.09980032357664
O          -1.29638752482247    2.12151828461226   -0.10837991923695
H          -1.57751396484881    1.63369546607043   -1.03606747680970
H          -0.93850089449035   -0.98213819460873    0.70430087996246
O           1.21131174245187   -2.12190428831242   -0.97726628863448
H           2.09117400655206   -2.36869935907847   -1.26720187014522
H           1.30335411247007   -1.81693162158572   -0.04257615338680
O          -1.80869081477723    1.02400519020945   -2.25377834291244
H          -0.92570118328888    0.50825611246855   -2.37980517552802
H          -1.82773260643928    1.69491419556593   -2.94146771665341
O           0.50347973190691    0.00239146833563   -2.50538733119408
H           1.01655375821300    0.67308188746422   -2.01413179725497
H           0.61903194209200   -0.82584050272457   -1.99187974319587
O          -1.46532070584059   -1.62575673469238    2.26082840289588
H          -2.27175146561963   -2.14595301557868    2.23441883120156
H          -1.73287457846968   -0.70322981352378    2.44316326662640
O           1.60740002179034    1.92329407396242   -0.91695871832435
H           1.36994758657697    2.83833115430768   -1.07636324037828
H           1.28559914974415    1.71890486247372   -0.01940207712906
N           1.53060970388162   -1.30135417963119    1.60804904182137
H           2.41093278544403   -1.44578090258245    2.08754304360526
H           0.80426470909425   -1.74174240111156    2.16177238559207
H           1.33924516183041   -0.30268352432506    1.61140119502667
