    26
        -50.44327247  Gyration_radius:  2.43036695418 Dipole_moment: 0.463
 S          -1.16053067732455   -0.25499775427974    1.22664151524027
O          -1.71877579671501    0.91017892839177    0.59279226469161
O          -1.12663062976782   -0.20088371666583    2.65910318203210
O           0.29640775614356   -0.47075878893160    0.70193823661764
O          -1.86120811845146   -1.49078241242122    0.71035195776526
H          -1.14667569487791   -2.19618419695614    0.29874982445459
H           0.91122828756687    0.07936092571643    1.22871432623013
O           2.11436074874960    0.69099115393312   -1.40619227017446
H           1.60037011424758    1.31638756768541   -0.84071692774364
H           2.30379903988660    1.15956632181056   -2.22088041831117
O          -0.25610946958410   -3.03526573262211   -0.34214704501553
H          -0.74842193573293   -3.68517931847133   -0.85069467037075
H           0.15790293059697   -2.38707000930371   -1.02765719847489
O           0.49299391591133   -1.36580646059819   -2.10410852098231
H           1.16406110985149   -0.73008607878273   -1.77446938174375
H          -0.32993429152972   -0.84400699517363   -2.17456196495696
O          -1.85813340050909    0.00101488649008   -1.91720539835383
H          -1.81997424142072    0.44380618700285   -1.04924245390111
H          -2.67511170979480   -0.50048900430257   -1.91787820890185
O           1.25139608566609    0.94063569141342    2.73089521770291
H           1.86141394564581    0.49824333985664    3.32573586834619
H           0.35266193390812    0.65318320325906    2.98679620694391
N           0.70544940573948    2.47206573531996    0.11106158433966
H          -0.23623893243770    2.09529140224803    0.18345301776060
H           0.62633228975096    3.44016179738643   -0.17578869063466
H           1.09936732321999    2.46062332766859    1.04530994756058
