    26
        -50.46147053  Gyration_radius:  2.5917034237 Dipole_moment: 4.224
 S          -0.14728820672919   -0.28156110374823   -0.67511690077232
O          -1.51206659545752   -0.73747160968815   -0.99129456333746
O           0.20039136591659   -0.66112824637772    0.68702220453623
O           0.83230067484567   -0.67350930120892   -1.65956408171971
O          -0.27012696532469    1.28658125835367   -0.67735235560712
O           3.71046657291827    1.44759624865490   -0.21068002687505
H           3.44687581766364    0.52189107390282    0.01111284082189
H           4.63536890607803    1.40981306340011   -0.45872743977618
O          -2.49016254387718   -2.49182720623166    0.81397724437553
H          -1.96677355187426   -3.29462300091477    0.81572046402288
H          -2.15729146803490   -1.95555260787297    0.06682050335121
O           2.80701115078841   -1.03799667187732    0.11547880469100
H           2.32831900393783   -1.11045034042827   -0.72718995634615
H           2.08171883172534   -0.98569848245189    0.75470312193388
O          -1.75980401856585   -0.46421117925608    2.41973079342057
H          -0.88433362608925   -0.50291596047520    1.96685791236135
H          -2.40297092476619    0.47092541077550    1.45029145234511
H          -2.17420787342925   -1.31058101819576    2.15397040689392
O           1.80155285905228    1.80540695674481   -2.04839173113571
H           0.52604902968162    1.63187269679531   -1.19945749419006
H           2.53849896803602    1.82864506509333   -1.39391569040829
H           1.73084982550113    0.88055878561157   -2.33005538931723
N          -2.69404980248866    0.97345157458178    0.51426123703536
H          -3.69132702089851    1.14926041152717    0.44708679654551
H          -2.34376708771398    0.27928840915982   -0.23137615926392
H          -2.14523335088976    1.82223578413032    0.38608798641483
