    26
        -50.47128559  Gyration_radius:  2.43363072088 Dipole_moment: 2.294
 S           0.59074609656218   -1.66277649270715    0.58612486880928
O          -0.08964168239527   -2.02424859677195   -0.63739638431419
O          -0.33623054109244   -1.13495793337152    1.58834752686411
O           1.72253348151921   -0.77896662502569    0.39350123575763
O           1.17689872198987   -3.00344769134981    1.18089173007087
H           0.45653093663498   -3.60491869880805    1.02869857735282
H           2.14030333728712    0.00298120392999   -1.06326631660256
O           2.26814991541443    0.61125499800711   -1.82064619205521
H           2.83779526833246    0.15652067709874   -2.44226052301340
O          -2.25867467016584    1.37968570366699   -0.51435370947036
H          -2.68651420676793    0.53445635898369   -0.25965335733396
H          -1.31323052257329    1.57969021710102    0.64536737690187
O          -2.65821850878797   -1.18356515033457    0.21780709929121
H          -1.89980709535414   -1.22811782017093    0.82754203537264
H          -2.36296586615300   -1.65688985348372   -0.56582119390709
O           1.93778066026136    1.90076563300071    0.74814743156752
H           2.11444615520836    2.09158568317858   -0.17998180471998
H           2.06246645816932    0.93698995639593    0.82245587409379
O          -0.45452757980848    0.23253682380325   -2.08108565375009
H          -0.36582264371223   -0.63992764308242   -1.65621610616872
H          -1.65161253670744    1.11562786827272   -1.24374768750807
H           0.45222681542450    0.56543995381642   -2.16788112433165
N          -0.60050133685334    1.50104279477093    1.46606674141844
H          -0.48996378015412    0.47294448439288    1.64984199944130
H          -0.93824048317087    1.97807579856393    2.29465525718032
H           0.34607358689671    1.85821837011114    1.18286229902592
