    26
        -50.45875111  Gyration_radius:  2.52148142377 Dipole_moment: 10.918
 S          -0.13407926331788    0.88645652317799   -0.65263254068308
O           0.70331330957567    1.09996098927540    0.52697893279759
O          -1.53844529186904    0.95299107768818   -0.36521086712103
O           0.21817033404293   -0.56364518858040   -1.16899657423604
O           0.29345098759558    1.73835953321643   -1.76655925472570
H           1.47160563783478    1.15016815689072   -2.19769200428487
H          -0.12280590408235   -1.21238741541169   -0.48775732774742
O          -0.58311257513536   -2.16522511870777    0.69085939282510
H           0.05125604617088   -2.84571117561995    0.92163706987037
O           3.20220546445536    0.61185348979575    0.10939239355594
H           2.25129432060975    0.75671482529645    0.36876435208957
H           3.69530555743861    1.31237413986139    0.54037368701404
O          -3.20181678990606   -1.24866074959154   -0.00702639415487
H          -2.49720916008102   -1.87131238498641    0.20331657834758
H          -2.75082613439416   -0.46607455663874   -0.35805583852673
O          -2.95140453715484    0.64966367157617    2.02344395506219
H          -2.59088466459015    1.15141811995706    1.27906877977201
H          -3.38444773158406   -0.10885115194358    1.59841003324189
O          -0.50445335272465   -0.32726924855771    2.46612710050039
H          -0.01283212465844    0.30893087564176    1.91601678986126
H          -1.42331401161487    0.02925437631139    2.51118535342261
H          -0.58571826953709   -1.50783273356556    1.46661883612153
N           2.41014211018291    0.55614975089864   -2.39673590024029
H           2.91808713465255    0.56258590383551   -1.46680782298766
H           2.96686420280624    0.94055472961365   -3.15295856038398
H           2.09965469527558   -0.39046643944363   -2.60176017939818
