    26
        -50.45920947  Gyration_radius:  2.45380212819 Dipole_moment: 2.438
 S           0.18089733742774    0.70292513947235   -1.56427667407870
O           1.28016525485661   -0.22372113821884   -1.60815241080641
O           0.10665446541963    1.43136632013167   -0.30051607654440
O          -1.11246835937201    0.09858888569207   -1.87967803202391
O           0.44029129797696    1.78406602933270   -2.68647458747776
H          -0.35916070861670    2.30053328331123   -2.67682258447148
H          -0.85165060696565   -1.20807934396654   -0.88450673602724
O          -0.43578500362010   -1.83573588122160   -0.25532934121370
H           0.48118997869782   -1.85019596762347   -0.55230781845429
O           1.48395333749203    0.53294784255316    1.79789359256695
H           1.10697518611926    1.03965700643617    1.04715801698639
H           2.21058265789131   -0.01932720695699    1.39560993205464
O          -3.47927699790747    0.28982078089091   -0.67322481296032
H          -2.67388724231515    0.25998465485587   -1.22799450287027
H          -3.87996463426134   -0.57889192350250   -0.73474093136746
O          -1.96941386973830    1.14758628741896    1.36176590070159
H          -2.69193497122020    0.87928625065667    0.75488542219215
H          -1.25524302972782    1.46989659222777    0.77417800619360
O          -0.57979569051098   -0.79829434384502    2.09802635108040
H          -0.56491092039392   -1.32936259477371    1.23483658334476
H           0.36914032311361   -0.26382378788720    2.09691052955352
H          -1.26404107084277   -0.01580094541395    1.91541734906123
N           3.23483460692605   -0.86064415512221    0.36533904161126
H           2.70287726152769   -0.66274453070646   -0.48326318769198
H           3.37574346070424   -1.86135157409397    0.42274585890063
H           4.14422790729569   -0.42868567962647    0.26252111172445
