    26
        -50.46847038  Gyration_radius:  2.51393652009 Dipole_moment: 6.117
 S           0.48046266257695    0.35195463832499   -0.60078277898564
O           0.04457192151286    1.52196250213146   -1.31825749876954
O           0.09305995008950    0.40278973190405    0.82639331087684
O          -0.23003091867965   -0.90217751439585   -1.18430575151830
O           1.90414186563391    0.07061519260257   -0.72242674210183
O           0.03930155215584   -2.20937929317185    1.28205498416979
H          -0.30438367688207   -2.56168478944556    0.45624480258975
H          -0.11462625062648   -1.24191379525082    1.21887487244643
O          -1.71533899704489    1.46513692461470   -3.31052708465892
H          -1.02528601616724    1.60589407786507   -2.62872287956254
H          -1.25130917931753    1.21276176406559   -4.10983841335072
O           1.79049872044299    0.61250944180002    2.86148001541457
H           1.26749715296327    0.56709156453050    3.66393027819248
H           1.14810590920725    0.71747270941409    2.12631115835055
O          -2.21331298343452    1.67931361515497    0.37908107219708
H          -1.93076431247129    2.38123714441392   -0.21434733267640
H          -1.38602459430669    1.26254013924497    0.68234266848171
O          -2.64515746755100   -0.22810057798533   -1.43942765685431
H          -1.23032370852470   -0.68134396654333   -1.30062304420452
H          -2.72630256845280    0.42379356444677   -0.70590985074461
H          -2.57026793286943    0.31786199876065   -2.24841933842050
N           2.55246854421679   -1.38464578548948    1.27027251972650
H           2.39457651842616   -0.79017788755336    0.37310171618037
H           3.41838987414553   -1.91055148163891    1.24425207396551
H           2.51581430254689   -0.69701796896470    2.05617601426373
H           1.69423961240603   -1.98594193883223    1.34307286499388
