    26
        -50.47128556  Gyration_radius:  2.43363030121 Dipole_moment: 2.301
 S           1.55943888407102    0.83609042421705    0.57096444875708
O           1.90488900715657   -0.04568913777882   -0.54496338204385
O           1.19715640640011    0.08854707922953    1.75441244092570
O           0.58087946650838    1.82959737979768    0.17780086077155
O           2.87336008062993    1.63355818342406    0.93454785357341
H           3.35620230949582    0.98013255906516    1.42827499858037
H          -0.98083240352034    2.00941456254670    0.83751983179972
O          -1.93584653849530    1.99112450120325    1.05585202156554
H          -2.04987520796986    2.54928474043981    1.82601054504478
O          -1.04126962646083   -2.44262912232661   -0.45615610897364
H          -0.16407347337505   -2.74195228925461   -0.13465766926700
H          -0.63115057090563   -1.42047802536660   -1.48800283472406
O          -1.31376272525859    1.76388881039014   -1.76086740150843
H          -0.53959619464881    2.00775605440808   -1.22132449954717
H          -2.05693156715976    1.82529826581984   -1.15013719628751
O           1.45733012404592   -2.46726301814701    0.55395491818537
H           1.74958006773218   -1.65341061375480    0.10539009893403
H           1.30106750223523   -2.19609721008151    1.46352181436857
O          -1.38246390300918   -0.67858981669623    1.49225296763490
H          -1.83288687961786    0.16939551457019    1.35574530866436
H          -1.37418998255465   -1.88243280719203    0.28258267566650
H          -0.45879167004769   -0.44626589793309    1.69817478563984
N          -0.17630197614463   -0.62814021012130   -2.08243719725297
H          -0.77091368926861    0.23800155748897   -2.07941714375500
H           0.01158928168255   -0.93913684932620   -3.02909676649342
H           0.71739326845705   -0.38000464462475   -1.58994535027111
