    26
        -50.45875114  Gyration_radius:  2.52137217666 Dipole_moment: 10.921
 S           0.68366613231126   -0.66482955486835    0.56641012699426
O           0.90877937542970   -0.62286815973385   -0.87783937363165
O          -0.39085554995697   -1.53816235813228    0.94313804697492
O           0.31699052167311    0.81323305694061    0.98406228092257
O           1.93582024300533   -0.90351466310101    1.29064835187694
H           2.61106093819812    0.30201886514565    1.18770775845501
H          -0.57817174578251    1.02037210029189    0.58770583426674
O          -1.93795102246450    1.31077070441436   -0.17070997445706
H          -1.97385870032503    2.16323342510713   -0.60754287882132
O          -2.97586325513100   -0.71552101337878    1.56184107170293
H          -2.06316876347797   -1.03856107940968    1.60390624363835
H          -2.92155146785883    0.13198885559573    1.10665285918506
O           2.56744045590329    1.21702691177722   -1.59944523519613
H           3.13829263588569    0.82782533961341   -2.26445536883117
H           1.87123765179655    0.52995582044278   -1.41051590476935
O          -2.55562443415298   -2.53783804231610   -0.50935354599220
H          -3.11869642809227   -2.06731159549367    0.12714879166602
H          -1.70453413369534   -2.60293682764250   -0.05426097451518
O          -1.56707026071615   -0.50429892189506   -1.93251326684777
H          -1.88543800516345    0.61649921489223   -0.91177339212331
H          -0.62694117155231   -0.64608723324949   -1.71996129872910
H          -2.03167739529427   -1.30212928976176   -1.58453091635185
N           3.01745844768520    1.33559023471444    0.98796311659924
H           2.34178574953798    1.98079933732284    1.39010608670347
H           2.99340451677788    1.41926745854754   -0.06810038542732
H           3.94546567545701    1.47547744417640    1.37371193670342
