    26
        -50.45875115  Gyration_radius:  2.52143116503 Dipole_moment: 10.918
 S           1.06675084111491    0.20256164822363    0.22551917222404
O           0.86873398081384   -0.02437388667618    1.62853219408013
O           0.30825486574116    1.34468130360917   -0.28298997196213
O           0.54105908538742   -1.05067574557937   -0.57853713917169
O           2.47373049703422    0.27879418033982   -0.17948810895395
H           2.44518930855913   -0.03239212431705   -1.52925938478074
H          -0.40219081960809   -1.21537691386786   -0.28797696410787
O          -1.92378548772352   -1.33576654650329    0.13507311014707
H          -2.52768852063277   -1.48486277506397   -0.59418405006360
O          -1.18049412500031    0.75638667440235    3.35647674174032
H          -1.34443356694761   -0.19175876914806    3.48922336260709
H          -0.28236823375040    0.78322965644923    2.99823934437623
O          -0.83693834227535   -1.93703104911291    2.71200764887020
H          -0.06054397967186   -1.43844720319886    2.41577086272495
H          -1.38748366729885   -2.03418237924864    1.92720903095041
O           0.34987589067256    1.53581399530554   -2.85571431865213
H           0.47196956566309    2.46453814305085   -3.06101488931664
H           0.23068935038396    1.49465571972783   -1.86747246885445
O          -2.11120661686817    1.10365066948833    0.87631006487237
H          -1.27471266352452    1.38760049401663    0.46553730828544
H          -2.09939755757600   -0.38723338569898    0.45683253196108
H          -1.93044679221081    1.09448987920742    1.84622223377066
N           2.23151860637739   -0.28346003284505   -2.60852916387619
H           1.78031900811084   -1.19496340971523   -2.59615908514111
H           3.06642997987879   -0.28581658860455   -3.18512677393784
H           1.52716937334163    0.44993842575301   -2.90650128779640
