    26
        -50.46443328  Gyration_radius:  2.44672925658 Dipole_moment: 6.624
 S          -0.67966742284643   -0.41870460969397   -1.81848483496819
O           0.21620297772666   -0.27641942558772   -2.93219254929011
O          -1.36986844413280    0.84039659796931   -1.46671084804236
O          -0.02671158939752   -0.93875140042264   -0.62331625902971
O          -1.78911604159918   -1.44980973824097   -2.22058374645045
H          -2.35576785538715   -1.48239495386238   -1.43008768897547
H           0.83401703387648   -1.28009235004329    0.65517007683464
O           1.25617978554730   -1.41748789819232    1.54047447847479
H           1.57578937836547   -2.32089985030602    1.53506364192710
O           2.55506861649651    0.37650826205007   -1.90978707941594
H           2.91121208995734    0.95626734306549   -2.58540772245627
H           1.70210062582226    0.04424468619517   -2.27039912473776
O          -1.07031035447966   -0.34517565204931    2.40697707405573
H          -0.24515452112936   -0.82607892598480    2.17993764877908
H          -1.24840124696995   -0.50964872073791    3.33397291229092
O          -2.88314974938947   -0.69144585680420    0.12436370313411
H          -2.31294632879676   -0.76228435969827    0.90127176604428
H          -2.54621340509684    0.06655262652614   -0.38167391566768
O           2.24486997069925    1.04950676365414    0.64454192513748
H           2.43196651698721    0.83478297404577   -0.29922302053711
H           0.77568569677304    1.50478029740963    0.67412175833749
H           2.18680257380151    0.18921287106576    1.08733137147547
N          -0.28468208390160    1.69750848048884    0.71880700296714
H          -0.71191087296179    1.40277451646627   -0.22085553424377
H          -0.47978310555909    2.67408946028279    0.91058596163626
H          -0.68621223440704    1.08256883240452    1.44610300271195
