    26
        -50.45611371  Gyration_radius:  2.60960562782 Dipole_moment: 8.326
 S          -0.40636392970303    0.47027402744646   -1.25585862482731
O          -0.20491801760241    1.29379253865636   -0.06466510271232
O          -1.64650449448450   -0.24440569576607   -1.26511866519192
O           0.78729158555479   -0.57741832956616   -1.24336518973059
O          -0.13807384407420    1.24198479180857   -2.47687159245711
H           1.22576669442895    1.42347052504493   -2.43623132489688
H           0.58497468983663   -1.23476343606017   -0.52162516121550
O           0.23473441541932   -2.28814418154658    0.63135064032710
H           0.56303324588252   -3.16428333613815    0.42329082287272
O          -2.82563843871532   -0.89372185463527    2.62709129689306
H          -1.94480195279632   -0.45763169533232    2.56294660388738
H          -2.85407582195747   -1.31340431828558    3.48783345834699
O          -0.30844103650215   -0.04022375497426    2.26933255239115
H           0.08921433590787   -0.86060135223899    1.95243584517425
H          -0.33693156603795    0.54483127469426    1.48919778271083
O           2.02506254150481    2.59291547791987    0.13570205300596
H           1.16690940411377    2.09093661307804    0.17807738937704
H           1.79834575775596    3.50430146301033    0.32820414953801
O          -2.30642628166652   -2.27332929250439    0.36010876909822
H          -2.66085864473132   -1.83291424069008    1.16168222434421
H          -2.28916741598726   -1.57592343252979   -0.32165618520876
H          -0.78193878268069   -2.34682614613143    0.55742588370003
N           2.33778724187037    1.48315304756163   -2.22444590334133
H           2.62499132517754    0.52156518735176   -2.05592491018083
H           2.40024782164086    2.02850700376138   -1.31975690833883
H           2.86578118790419    1.90785910600591   -2.97915991358539
