    26
        -50.46443323  Gyration_radius:  2.44676071959 Dipole_moment: 6.623
 S           0.03435054731479    1.52220082076232   -1.27533953831996
O          -0.03041248592144    2.85670191887363   -0.74805576909373
O          -1.29832576895708    0.91759635171753   -1.48476258713842
O           0.82794893688170    0.61999692555394   -0.44983336199511
O           0.72919842296358    1.59098679331137   -2.67823682630449
H           0.72495908719417    0.66295250770658   -2.97120313112240
H           1.50539238120917   -0.30169444587847    0.63782648187123
O           1.83928254000015   -0.99943341616774    1.25636699736558
H           2.78450413360156   -0.85505562719694    1.31999295795375
O           0.37521089445776   -2.60642163785562   -0.35230988520097
H           1.00118020538721   -2.10837488339197    0.21672483376523
H           0.60320365715413   -3.53426966339587   -0.28004802608589
O           0.02477440823531   -1.00928871719348   -2.79048055848590
H           0.31593792726170   -1.55990705538187   -2.05172112675499
H          -0.69077298725538   -0.45362610546291   -2.43920131364066
O          -0.00861026636792    2.60799463677530    1.87490350465821
H          -0.56800373708036    3.33757069327063    2.14724011069013
H           0.07583532539945    2.69092573561084    0.89819179807269
O          -0.42548830382347    0.06258402441707    2.52415974379723
H          -1.19720106884941   -0.45286602174855    1.29719123215929
H           0.44532818221889   -0.33957490375769    2.38442035306862
H          -0.28784580570270    1.02472218377324    2.35959719945083
N          -1.61998434309351   -0.84104811489936    0.38391868183580
H          -1.03104575997263   -1.63261353621774    0.07582840948302
H          -1.54388193658698   -0.07531325891063   -0.36462108329818
H          -2.58553419566850   -1.12474520431617    0.50945091327676
