    26
        -50.46443326  Gyration_radius:  2.44674775922 Dipole_moment: 6.624
 S           1.25980796798647    0.28436782819275   -1.50876873441178
O           2.05625837950648   -0.47901309203506   -0.52470831113279
O           1.76635188427179    1.60922922379706   -1.73537625781318
O          -0.13534317139284    0.27099199598898   -1.08615951354167
O           1.33628117421416   -0.49954106908220   -2.86348288360096
H           0.99179377643684   -1.37879193567006   -2.62825170443505
H          -1.55871711452264    0.40063412853753   -0.41620349226729
O          -2.41638030152465    0.33933096627540    0.07529425473560
H          -3.08993190340200    0.61377608167077   -0.54867965197049
O           0.55484481920145    3.16380059136799    0.01317348453639
H           0.93068898476809    2.59016644370213   -0.69229917252271
H           1.23704616966989    3.80785708141137    0.21116096453216
O          -1.45424909672731   -2.10638571727586    0.71204845377817
H          -1.91248400846932   -1.27868412103815    0.45000336061540
H          -2.12440352558642   -2.71304405344470    1.02980886958870
O           0.60977070394711   -2.58718996285354   -1.31935159890631
H          -0.19012571963453   -2.46585907152303   -0.79097122120483
H           1.29173723531020   -2.04065000854588   -0.89459438297381
O          -0.67233411601189    1.65906979124969    1.83079492982960
H          -0.22616487012392    2.27863907886336    1.20722912415870
H          -1.48157110365802    1.38636074614151    1.37217915282153
H           0.15600147735602    0.36366199322045    1.77878963727963
N           0.65467987467478   -0.58353507132739    1.64624920992936
H           1.28718399193341   -0.50355306989366    0.78255383749874
H          -0.06708160668441   -1.29256733704255    1.43487194475626
H           1.19634009845461   -0.83907142069931    2.46468970072377
