    26
        -50.47045947  Gyration_radius:  2.47423933066 Dipole_moment: 3.917
 S           0.57953097181950   -0.14453136335859   -0.82297156933776
O           1.73824904437648    0.19685045334479    0.00571706149799
O           1.05312873078210   -1.26439448750438   -1.78249832813665
O          -0.48991431216585   -0.69043255491184    0.00925254560126
O           0.11662164845661    0.98857288647883   -1.60672965365994
O          -2.50985085893177   -1.36719144556972   -1.56385970092068
H          -2.77527385481797   -2.24694962759524   -1.29099017505470
H          -1.83607487094377   -1.07008651530223   -0.91509863613118
O           1.95191729742409   -1.75855369198029    1.82619314139569
H           1.95334225649434   -2.60461810744732    1.37628832609684
H           1.98502340754611   -1.08158613511223    1.12101462129850
O          -0.36052813411075   -0.62789097587543    2.67343017893076
H          -0.67242019975693   -0.73465481584634    1.75247679968301
H           0.45311220196520   -1.16887468239981    2.69003010312356
O          -0.82764210423285    2.74628459579987    0.10171094141585
H          -0.55455960247353    2.07817466894118   -0.57109636349957
H          -0.84938079374642    3.58771434196906   -0.35723521231881
O          -0.76682520367773   -0.72699975236693   -3.49690430055699
H          -1.55640593859636   -1.02781627220051   -2.99968070568801
H          -0.63010968107080    0.18807628719103   -3.21039559728665
H           0.41750614804807   -1.20181530858647   -2.55823411831401
N           0.72551946547364    1.61877125720544    1.95303093136079
H           1.29230360833177    2.15705385326393    2.59893004373586
H           0.21288297579009    0.79822564046433    2.43079564946311
H           0.04357283482971    2.21191825282336    1.42966866778297
H           1.30627496318970    1.14475350854311    1.20715535952269
