    26
        -50.46443322  Gyration_radius:  2.44675327944 Dipole_moment: 6.623
 S          -1.67022882651564    0.96289628885174   -0.47736936470626
O          -0.59992428946400    1.92177121353991   -0.82442969133024
O          -2.51819279708971    1.42727336437861    0.58491571965616
O          -1.06007381367456   -0.33100265060500   -0.19677033492641
O          -2.55537009096196    0.78459936590407   -1.75816098971800
H          -1.91578111716727    0.48353271567124   -2.42701500888831
H          -0.28612379350126   -1.60602351943297    0.31988276267168
O           0.31777323203125   -2.35911465853191    0.54142392173192
H          -0.24424140319888   -3.13397259173404    0.58680896147473
O           1.76725137311746   -1.31219713589585   -1.48753404608637
H           2.41766688477504   -1.91660490630174   -1.84777419947022
H           1.25684846675678   -1.80528930567903   -0.80926585982179
O          -1.42400764507579    0.56770271409659    2.82244682425275
H          -1.63343408634777    1.27883294974393    3.43063486804144
H          -1.86977200276248    0.80360714070158    1.97766443892296
O          -0.17403005077258    0.34079379365081   -2.94277600480079
H          -0.13995380961059    1.09248096180692   -2.32796472746482
H           0.37544699945798   -0.34780048095515   -2.54572287371708
O           1.03475085218399   -0.31392107170772    2.32103823391332
H           0.87479719512284   -1.19532756322826    1.95073998801981
H           1.40359452223252    0.48258179056282    1.05756171949509
H           0.14322951037837    0.01395767591169    2.58457943389475
N           1.60657204166245    0.94234366848295    0.10316213968046
H           1.83791797436066    0.18947243368578   -0.56619217664201
H           2.35513922159616    1.62355311344263    0.16751196922331
H           0.70014545246668    1.40585467362795   -0.23739570340801
