    26
        -50.46443326  Gyration_radius:  2.44674953683 Dipole_moment: 6.624
 S           0.18759656262843    1.82881217539845    0.75160141674714
O           1.36351477356265    2.58523274300710    0.42266262748515
O           0.37618036462025    0.94634634457858    1.92254542128726
O          -0.30345135663292    1.02434107716542   -0.36057231074394
O          -0.94934024497926    2.84148508710005    1.12244149700065
H          -1.69842239257691    2.26009712068851    1.34148881090637
H          -0.59392527945839    0.03102894569725   -1.55245774231104
O          -0.84091771376506   -0.68909406708582   -2.18594419811052
H          -1.20234262991721   -0.24312739775471   -2.95328248035319
O          -2.02887729119723   -1.71529451198114    0.01613846635072
H          -2.68417045685940   -2.38695736414001   -0.17763570564911
H          -1.70864007941252   -1.36545788666321   -0.84337248221674
O          -2.27576161848216    0.59648515801488    1.80851398576793
H          -2.33825280411582   -0.08465421159969    1.12595937228374
H          -1.35310957153851    0.58092893956225    2.11288655943217
O           2.73078897651053    1.10806356533598   -1.27756381227667
H           2.16777974685792    1.68634828312004   -0.71488951845207
H           3.63534020355694    1.32738920682014   -1.04721753830503
O           1.73558416835191   -1.35828111867566   -1.30343743123001
H           0.95226332133511   -1.26749855901120   -1.86710885322055
H           2.16932283726941   -0.47348544984838   -1.33066156104817
H           1.09477029621881   -1.45368515813976    0.09193642450196
N           0.53666839389431   -1.47000913579755    1.01481658006418
H          -0.44270433403809   -1.70867808327424    0.78635233663332
H           0.53794393651969   -0.47468273362298    1.41696902278630
H           0.93216219163779   -2.12565296889065    1.67983110266173
