    26
        -50.46443325  Gyration_radius:  2.44671602651 Dipole_moment: 6.622
 S          -0.39976492869532    1.90568170393332   -0.39002608680174
O           0.28392275363604    2.53660906014493   -1.48440812498056
O           0.36190264217762    1.95896383904246    0.87588719233319
O          -0.75160598801826    0.51716442540683   -0.66084661244628
O          -1.74052324543493    2.67996162268717   -0.14818899820551
H          -2.13448168258744    2.20635375634139    0.60522518210808
H          -0.86653045525617   -1.02409077775037   -0.98184019432166
O          -0.93410868693244   -2.01139099946941   -1.02105045751155
H          -1.59318184463166   -2.19707919048726   -1.69148477045864
O           1.73625548664115    0.65535688963229   -2.62209135816242
H           2.50606128734014    1.14828610053610   -2.91171137988804
H           1.12123339509968    1.32474380367072   -2.24561977031035
O          -1.13155949845140   -1.73637585534637    1.66223700024992
H          -1.16249359343670   -1.91264398019140    0.69703217813610
H          -1.49218209311271   -2.50710821084404    2.10281260505957
O          -1.89505772270996    1.07652190254297    2.01409690643655
H          -1.82315701002573    0.12796882654764    1.84430868526844
H          -1.00037106386192    1.43502392585712    1.89079001924207
O           1.81871038965247   -1.47612842892099   -1.03326231543884
H           0.96483525085527   -1.90251469999125   -1.20264295587048
H           1.85033404497829   -0.71749918744273   -1.66193012111515
H           1.57406038338407   -0.84840858046667    0.34987232506869
N           1.27355848814022   -0.42469798304820    1.29517606273946
H           2.02529769379181   -0.45578999758105    1.97522701462295
H           0.44459416845385   -0.94672276103962    1.62484222577319
H           0.96425181901237    0.58781478622554    1.11759574846530
