    26
        -50.47045952  Gyration_radius:  2.47411747935 Dipole_moment: 3.917
 S          -0.84819894593152    0.53923304760665   -0.15470811505087
O          -1.16132252998773   -0.37905599174904   -1.25228969267368
O          -2.20055633392057    0.87827065114534    0.52010149120084
O          -0.00861489958480   -0.12990023294577    0.83607221482577
O          -0.23290565639429    1.76728341466530   -0.62977694154809
O           2.12178681208318    1.10332794021172   -1.58618907665134
H           1.27955896619772    1.39867527507792   -1.16548611273114
H           2.39605151193199    1.82225684334533   -2.15802034992936
O          -1.59938532278818   -2.76796644286783   -0.11913578575390
H          -2.24481160603530   -2.66679641747246    0.58188565786968
H          -1.55735062447133   -1.90101384144780   -0.56999676412632
O           0.43963811805817    1.55674532517345    2.82772632563423
H           0.38056145313802    0.90832078378335    2.09341251404107
H           0.27765531433244    1.06437533089171    3.63405395117396
O           1.05441088170701   -2.53322490142009    0.37626920550437
H           0.17645627627110   -2.94959066058152    0.27225791888136
H           0.83643989253893   -1.66449055307210    0.76946500723108
O          -1.30674310358168    3.07573068311462    1.47533868978453
H          -0.79432140036746    3.11139262563285    0.65420171274517
H          -2.03034153066490    1.75987902136231    0.97127748506333
H          -0.68155700633171    2.72371924564416    2.14340345901605
N           1.16368420955891   -1.36033331721685   -1.93849419849915
H           1.31121571187831   -1.89269634883981   -2.78877487048378
H           0.17015382241521   -1.00856848096255   -1.85173216180528
H           1.29902759900791   -1.95185467343012   -1.04619305654575
H           1.75946839094917   -0.50371830564647   -1.89466850716929
