    26
        -50.45343154  Gyration_radius:  2.45945062175 Dipole_moment: 6.994
 S           1.33797413000226   -0.55938993218324    1.50238083851655
O           2.29750127712231   -1.54640672020640    1.84680350552802
O          -0.07675082253129   -1.05784144364555    1.83414131126813
O           1.35613000810063   -0.14639756395371    0.10602409227032
O           1.51612051346181    0.69126656666741    2.37184069244209
H           0.71563458287294    1.32401363373424    2.16149393423853
H           0.93717749391755    0.23593921947701   -1.44051803895396
O           0.61572097777667    0.50108876678000   -2.32947157836128
H           1.39816956992845    0.72001842147887   -2.83785128612645
O           1.26308350335850   -2.78573695519429   -0.58060789861159
H           1.48434614543176   -1.86925402190642   -0.36143799890382
H           1.54444890779864   -3.29758533798543    0.18046556487775
O          -1.21637633058626    2.02570726441896   -1.08158144980001
H          -0.52633809428639    1.58278052404959   -1.61921709388555
H          -1.91803241051417    2.27067770157193   -1.68770713795926
O          -0.97066753656655   -1.83556413396645   -1.85330300718457
H          -0.28472153606153   -2.39915450507469   -1.45481384538009
H          -0.48636550771345   -1.14319796808240   -2.32269851665123
O          -1.81735347783327   -0.37192644511374    0.16045791638668
H          -1.63630014798650   -1.00999368309132   -0.58096996355226
H          -0.80499539407428   -0.76585186554035    1.15096665471085
H          -1.62567908994821    0.50875957079163   -0.21169261409023
N          -0.54906221813175    2.10795683354859    1.81916128375655
H          -0.62846817241020    2.26987728052638    0.81922550283900
H          -0.58303186697543    2.99946726025843    2.29601583498916
H          -1.34216450421258    1.55074752278300    2.11289328769768
