    26
        -50.46864949  Gyration_radius:  2.41903320541 Dipole_moment: 3.013
 S           1.34088188555242    0.16173965930115    0.11805799747814
O           1.49306712957529    1.55305329148802    0.51327512341878
O           0.79848488918465    0.08814506860058   -1.25481448735783
O           0.50210060833982   -0.58295231735523    1.04304307077245
O           2.73914151698240   -0.49198857302025    0.09601692235558
H           2.56143254601806   -1.46812860771379   -0.02548762862601
H          -0.99745977036107   -0.93380503179264    0.64275270598477
O          -1.94599443601817   -1.09927104187434    0.39713861460525
H          -2.31951325778141   -1.60851927310257    1.11863269144207
O          -0.21417611912048   -2.34527903638235   -1.52968230168597
H          -1.01040266156679   -2.24514549875006   -0.99264642289619
H           0.13989332253517   -1.43625166850476   -1.60177485449710
O           2.09973853295296   -2.95819590868224   -0.39120029761005
H           2.63239264039360   -3.30548278045616   -1.11022432418008
H           1.18367266552872   -2.85949033227685   -0.75437584443956
O          -0.41893990969274    1.66888846318517    2.38378114264347
H          -0.35171313128891    0.76711935656050    2.71086640787965
H           0.36224224112691    1.75771549102029    1.80291419626073
O          -2.31650817862791    1.59114336730209    0.51059098051110
H          -1.33048504490203    2.09392559442945   -0.51129561377249
H          -2.36823787280228    0.62096605441785    0.38457465616887
H          -1.76870124600959    1.71193032625045    1.32315299054597
N          -0.44524421975676    2.32135623569599   -1.10985951541324
H          -0.62139837366035    2.97070906386722   -1.86874809980685
H          -0.03996371929260    1.38792798954248   -1.42740678648150
H           0.29568994269869    2.63989008822674   -0.46728132327873
