    26
        -50.46864954  Gyration_radius:  2.41902216028 Dipole_moment: 3.015
 S          -0.05699859197120   -0.10928473889343   -1.34996890110926
O          -0.51807556041678    1.19851620736897   -1.78849991998030
O          -1.12440166314203   -0.78468963515572   -0.58268394251503
O           1.16528580226542   -0.02620490016517   -0.56708924755052
O           0.22484170470104   -0.96867864027322   -2.60097513977472
H           0.67964733589803   -1.78676292304864   -2.25009524660132
H           1.10268068274664   -0.18609986527209    1.01492483088364
O           1.03762274275860   -0.23707295637367    2.00518497623948
H           1.93733979630727   -0.17767901115077    2.33132696261309
O           1.23409935065433   -3.08909384922018   -1.49934180502592
H           0.80816991526271   -3.87814619165505   -1.84188844642264
H           0.92296722954506   -2.99640757605758   -0.56370038263192
O           0.06124083899657   -2.67840008611484    0.84201733096835
H           0.48711171545559   -2.12781540009341    1.51124131712186
H          -0.52491190133192   -2.05922713782142    0.36249895985498
O           1.05534181659663    2.73187732272051   -0.25816188395272
H           1.82724295507586    2.15900768028545   -0.23163254472215
H           0.48775074473896    2.31523274658594   -0.93619227952386
O          -0.35960707949344    2.09247615221283    1.91088398741878
H          -1.53337252495578    1.72722682026523    1.04016040036463
H           0.08276409284682    1.24868796215251    2.13930598638136
H           0.21832913055010    2.50314240414967    1.22362797041580
N          -2.19780264482552    1.38881093787934    0.24163782199892
H          -1.95689762623925    0.36794083155245    0.05215645873025
H          -1.87959641656097    1.82364055962747   -0.63766781648194
H          -3.18077183532773    1.54900327653872    0.43293053328998
