    26
        -50.46864947  Gyration_radius:  2.41895347317 Dipole_moment: 3.009
 S           0.57117038027551    0.99177265036131   -0.72659288724022
O           0.44722574061816    2.16548700355313    0.12307791786475
O          -0.76941263653808    0.54116700190831   -1.15588275042377
O           1.29100544583330   -0.08736480914462   -0.07005709344304
O           1.35030687727215    1.39316290233547   -1.99742479416824
H           1.54098810610630    0.52888079626217   -2.46203538354244
H           0.48935086357297   -1.33482636923094    0.50681644811179
O          -0.03241369968679   -2.08066815637460    0.90549906260564
H           0.61342106136189   -2.68746423642911    1.27165869263828
O           1.21462623731940    1.08271145597036    2.44824102038646
H           1.00442874474161    1.63494737165051    1.66950304664993
H           1.85074769059788    0.44807812447527    2.10573071992398
O           1.60547556521002   -0.91934539732837   -3.14443629596150
H           1.34461342782887   -0.86627273699704   -4.06661139453221
H           0.89932176200089   -1.44587886003242   -2.69178979563413
O          -0.49818766987877   -1.97909255780586   -1.92899269713541
H          -0.40135826522346   -2.39802268439114   -1.06436091699364
H          -0.75583437883060   -1.05895945945324   -1.71968211465048
O          -1.08211259506243   -0.26115410165325    2.63066687710917
H          -0.84866892872285   -1.03959513151969    2.08356794969039
H          -0.22721588662830    0.21081195517288    2.77718346807063
H          -1.73495859315346    0.72494282805201    1.69786615195487
N          -1.97021391252770    1.44972753770355    0.91483173426618
H          -1.25500253664266    2.19180622681420    0.94775960485330
H          -2.91807150796684    1.80744109026247    0.96071817703279
H          -1.72923130190269    0.98770753585720   -0.01525472744272
