    26
        -50.47045909  Gyration_radius:  2.47477715959 Dipole_moment: 3.915
 S           0.13920289937399   -0.55972102359123   -0.83559608002854
O          -0.66746638445139    0.23060450118927   -1.75059182407259
O           0.78373601311966    0.28102807302807    0.17036664149275
O          -0.64200396809768   -1.61450843247739   -0.18494794305122
O           1.25210222051375   -1.28137204445713   -1.63536110281007
O          -2.40592525541029    1.54388770560979   -0.28365222570008
H          -3.11507909943367    1.80582291005922   -0.87315436144789
H          -1.71784522348613    1.12889731718668   -0.85640505286044
O           0.19255534596757    0.06370794818713    2.76285099785354
H           0.54708694982306    0.37202537016098    1.90488519955776
H           0.48801683622655   -0.86712701260089    2.79673233151147
O           0.81197095000458   -2.43360282427641    1.91207973629143
H           0.29464850907097   -2.24903242551911    1.10272306933351
H           1.69600871831006   -2.65105990767723    1.61312723500739
O           2.24871103227978    2.09751615456715   -1.08107396734109
H           3.10148346088550    2.09834403454243   -0.64336470163510
H           1.66997745383314    1.50575124097600   -0.55383389162602
O           1.53603454695135    0.68519839845161   -3.24501015370639
H           1.93874937612930    1.33879175050827   -2.63531811759169
H           1.50135993564494   -0.62135775196923   -2.35112918112177
H           0.58097724087719    0.79487463808698   -3.12674559727184
N          -2.08564618074136   -0.33508835550183    1.58103299314865
H          -2.37227968688493    0.50448297509962    1.02963771902772
H          -1.64998146835369   -0.99124669766950    0.87535155385059
H          -1.26308703163780   -0.08666634001309    2.23370108632906
H          -2.86330720052232   -0.76015018191062    2.07369560686264
