    26
        -50.46443307  Gyration_radius:  2.44676660906 Dipole_moment: 6.620
 S           0.11913277002832   -0.69114604143369    1.85790642543667
O          -0.31608853855864   -1.86623030493699    1.07361713866687
O          -0.86367212597139   -0.25600785727007    2.81078648621843
O           0.52141692327268    0.36077044396591    0.93221250309719
O           1.40158394443124   -1.12084945502808    2.64928357465034
H           2.00769397048652   -1.40881165713522    1.94439437472811
H           0.69210822634862    1.50463181424491   -0.14216213104434
O           0.83634158467831    2.10081134755852   -0.91977104085227
H           1.32612436620008    2.85135993083878   -0.58047495008041
O           1.65369622894380   -0.20795245946188   -2.06818128620411
H           2.17951156285314   -0.08006705048680   -2.85892789057472
H           1.46567542635801    0.68122369653466   -1.69732765178383
O           2.22019907976809   -1.95798666514895    0.22048068477532
H           1.29339382596910   -2.19361146971328    0.39292161786622
H           2.19595453212494   -1.29789679728329   -0.48480055394930
O          -2.37091758523000    1.50557377310355    1.55862940898305
H          -1.74636313402465    0.91689170942420    2.03963023094250
H          -3.22923006833615    1.34859441159774    1.95628001543843
O          -1.87327601470295    1.39370307808157   -1.05169545860056
H          -1.35909753337130   -0.04715031625700   -1.21363962744258
H          -2.12511007018082    1.47571458396482   -0.10219912006003
H          -1.05047592645480    1.89953537524067   -1.13402548036764
N          -0.87801123809717   -1.00864105306487   -1.30077362795222
H          -1.43621861481877   -1.65873622944523   -1.84329451818318
H          -0.71458196483748   -1.38510883382089   -0.30885299272937
H           0.05021037311963   -0.85861396408674   -1.73001613098891
