    26
        -50.46049338  Gyration_radius:  2.43406121522 Dipole_moment: 2.676
 S           1.73307521810893   -0.15664547963029    0.65475153842150
O           2.14150672620400   -0.71923686740393    1.91820443023125
O           0.98834032143626    1.08681784421495    0.78442754775896
O           1.05828162938686   -1.09189374417668   -0.22778028787734
O           3.09959158121976    0.22759846424717   -0.08382877842376
H           3.74191035334991    0.08080521884179    0.60310616764631
H          -0.45822076582301   -1.45224948495767   -0.67468216000694
O          -1.38745847489447   -1.62974460958490   -0.95945303465635
H          -1.40618016438235   -2.54585226291128   -1.23886718845012
O          -0.28888181460680   -1.03457154383524    2.88186472528269
H           0.62068360610139   -0.99601887267317    2.51919645514007
H          -0.25193551239873   -0.58406123059013    3.72797600162223
O          -1.49842844284448    0.89220817214385   -2.06660886594663
H          -0.52625179622207    0.99356116270691   -2.27523716827522
H          -1.62800691034720   -0.05794017843588   -1.90462329580675
O          -1.43938584751370    1.62454089334661    0.31993114988996
H          -0.45184397926305    1.48676299840543    0.52981053827037
H          -1.53164057867841    1.41537541684981   -0.72288077971298
O          -2.36447961857288   -0.48459020035264    1.30363346195237
H          -1.67236053477605   -0.73947747256752    1.95374299355640
H          -1.92093521958588    0.81467720704100    0.79552822269220
H          -2.21016108488130   -1.05158960210079    0.52485211976726
N           1.14445135406287    1.00630177443202   -2.17340834347089
H           1.29656793434378    0.18212276138136   -1.59739274734071
H           1.45534142635651    1.79233528613739   -1.61510292972169
H           1.75642059422281    0.94076434947372   -2.97715979254187
