    26
        -50.45958868  Gyration_radius:  2.41988639664 Dipole_moment: 7.270
 S          -0.11645325872577   -1.57445956664794   -0.97861699603412
O           0.47579655986518   -1.56711230847329    0.35957852117008
O           0.85502790340526   -1.65385223127300   -2.03238197289695
O          -1.07486511619266   -0.48460635832502   -1.11471904418074
O          -0.98237342779872   -2.90081274476918   -1.06643657899863
H          -0.35424746053434   -3.47467266172827   -1.48983941195469
H          -0.42461635199381    1.00317125271786   -1.13017999202615
O           0.00123723668753    1.89194907216660   -1.07811709163059
H          -0.46074839826312    2.45753034654578   -1.69825739755992
O           2.40583753876207    0.55155504570052   -1.72445879186539
H           1.96497707757114   -0.28223476919132   -1.96477202393177
H           1.70106133834629    1.20930670372428   -1.64735799192197
O          -0.62544007363021   -0.15344147370438    2.14150386138311
H          -0.19412176966970   -0.81767052217477    1.49943366045409
H          -1.58631721603222    0.00581391850525    1.75110845892608
O           2.66897839177254    0.06020706049096    0.89044117350805
H           2.09452114521204   -0.71805123690459    0.84252404340500
H           2.83797255573230    0.29104064211294   -0.04918854296851
O           0.81736697587381    1.76456709116353    1.53247577885003
H           1.65391251902866    1.22677177006127    1.39227090852945
H           0.52969761064694    2.01003196273905    0.63490503251505
H          -0.03406391476791    0.74419536857171    1.96972352746436
N          -2.85708026316278    0.10828341134570    0.93303914263031
H          -2.42753372377819   -0.13335428498452    0.03513796244534
H          -3.29903092772530    1.01431071578355    0.85039343232956
H          -3.56949496063198   -0.57846621345714    1.14179032237730
