    26
        -50.45958869  Gyration_radius:  2.42007953633 Dipole_moment: 7.259
 S           1.05760611372916    1.07381885457390   -1.08777723918914
O           0.60094528514353    1.55233315231781    0.21767186104505
O           0.32858872964164    1.63687545177007   -2.18875086100729
O           1.14059282897355   -0.38146126603478   -1.09345503457577
O           2.55498007432406    1.57526951362850   -1.23868793911215
H           2.40753794066799    2.37316719511975   -1.73345090046427
H          -0.29062723632389   -1.14561167605167   -1.02837956701084
O          -1.17400109157206   -1.57466144733813   -0.93000343165004
H          -1.16491523776095   -2.35688127379878   -1.48311592696814
O           0.60503161390034   -0.07295702296118    2.15307180424221
H           1.25686721964345   -0.82605476562624    1.82362414220304
H           0.67256856294723    0.65487064447792    1.44227509402274
O          -2.25049234624539    0.89326628217343   -1.79385489785852
H          -1.39091265588220    1.25337280668487   -2.07468627829585
H          -2.10063353874328   -0.04829082291040   -1.63159951274821
O          -2.12492660391188    1.67858992506131    0.75827153018898
H          -2.40947391452337    1.51657268383108   -0.16787723363928
H          -1.19248607230710    1.92821324628804    0.67878367663279
O          -1.71963052689847   -0.73721039046696    1.61944364574148
H          -2.04511527351925    0.18676535489867    1.39707065076749
H          -1.65144459212564   -1.18754348946049    0.75853071553552
H          -0.41701913204563   -0.42498275809429    2.02032287616355
N           2.18282996949476   -1.76660403423025    1.07926348598057
H           1.96411891454905   -2.75409993109713    1.08596131774798
H           3.16941531780935   -1.65519397095025    1.27159895269913
H           1.99059564103914   -1.39156227180651    0.14574906954111
