    26
        -50.46443325  Gyration_radius:  2.44674270376 Dipole_moment: 6.624
 S          -0.06351979802561    1.76005849551506   -0.91780736031700
O           0.61079818439685    0.87876634728735   -1.89453634704582
O           0.78366585623352    2.81378950458567   -0.43287283357823
O          -0.61389631810630    0.93336524820749    0.14934499668457
O          -1.27627690994059    2.41898932672319   -1.65989259551065
H          -1.79030135828746    1.65095605974329   -1.96492239894900
H          -0.95224350099352   -0.01778192187969    1.36296616334246
O          -1.17366046290076   -0.73252698373753    2.01181459154872
H          -1.80731590719180   -0.34321315286967    2.61619168376850
O           1.99054791902221    1.85729186152644    1.70489469468064
H           2.84709815840658    2.28549553043137    1.65626567140455
H           1.46629489632015    2.23177241473160    0.96128676199492
O          -1.50251021622241   -2.17680851385262   -0.25127270733984
H          -2.00981201195733   -2.97987459472898   -0.12523729524585
H          -1.49724737509456   -1.69904093557224    0.60618967837524
O          -1.82885869205525   -0.13282775609316   -2.33318238671447
H          -1.89828243952229   -0.75948061367808   -1.60090125255628
H          -0.88217716619558    0.06885721504736   -2.41885605105886
O           1.62368998168288   -0.77438216076980    1.82156616688546
H           0.72558847343254   -0.85012138516442    2.17843353449620
H           1.39130509461283   -1.12544989959012    0.34217293177523
H           1.81836230370610    0.19191478977349    1.83246170742047
N           1.10026154367509   -1.34754319634625   -0.67258000746470
H           1.79075323124645   -1.92273869081423   -1.14258808998594
H           0.96913031747810   -0.41515436064444   -1.18809047763084
H           0.17860618627907   -1.81431261784269   -0.64084875897187
