    26
        -50.46337602  Gyration_radius:  2.55554982705 Dipole_moment: 3.973
 S           1.45264989488805    0.97812664740461    0.25349836486491
O           1.19736313834418    0.79278423939127    1.66053492391862
O           0.37998267072645    1.69157380780416   -0.42958903571278
O           1.71541431168715   -0.30269537140584   -0.42111120072479
O           2.75115290205613    1.83913888071775    0.12042175192179
H           2.92996943058845    1.80835665656560   -0.83804637626117
H           0.70953106222285   -1.33069658918251    0.25702878916976
O           0.06746093011359   -1.99194637110300    0.62676707127507
H           0.56984618813366   -2.49844099000839    1.26700899290824
O           2.92699981009518    0.94300822608907   -2.38057071519399
H           3.73885283918447    0.48638947002023   -2.61206579677183
H           2.40057906523859    0.31505096072138   -1.84408827031689
O          -1.12253962858076    1.38886649183658    2.73443359606084
H          -0.94812274602467    1.40975948390078    3.67674070915324
H          -0.24454025620662    1.26583048706452    2.30488442380502
O          -1.29588952029906   -2.13456811203836   -1.75847189660064
H          -0.69460438571385   -2.22878295169196   -0.99769236918357
H          -2.02552599102398   -2.73594377037320   -1.59716127799865
O          -2.21491661527686   -0.62579214346011    1.39495063149250
H          -1.93188509560034    0.10727731203359    1.98819665392622
H          -2.12890173258485    0.07352712080485   -0.00130362361361
H          -1.43256419249234   -1.19785605009969    1.29903193107276
N          -1.80550977123438    0.41509425268859   -0.96568714616152
H          -0.90040440580066    0.96450562975444   -0.79862494324310
H          -2.49429675369977    1.00603557478026   -1.41677426150675
H          -1.60010113876234   -0.43860291223275   -1.52231091629390
