    26
        -50.46337573  Gyration_radius:  2.55608095754 Dipole_moment: 3.993
 S           1.32708438009674   -1.16716015708880    0.10751413512663
O           1.35831336913456   -0.83834628362487    1.51114839303345
O           1.61830600042423   -0.02469121390443   -0.75047767249168
O           0.04209891466575   -1.77180445133685   -0.27728321304912
O           2.43249591666544   -2.24315188483569   -0.14810448822943
H           2.26199008862173   -2.50872390158743   -1.07115712952658
H          -1.04958401455357   -0.96599897205343    0.55069231547791
O          -1.76419387049068   -0.45905801484832    1.01848063752026
H          -2.01563754094832   -1.00823349330598    1.76278778356515
O           1.57503686373110    1.64086807313280    2.34539109908066
H           1.81635352782713    1.55850852486281    3.26939092584943
H           1.58583860003856    0.72362546206249    1.98592915576963
O          -2.67307685987132    0.62261057979113   -1.34046233374487
H          -2.47522037129089    0.08646487507755   -0.55116533187603
H          -3.39461651863178    1.20427239392892   -1.09338564695996
O           1.14344994908505   -2.83730467561987   -2.40075161437431
H           0.52225071010044   -2.42113547573779   -1.76818444348408
H           0.85883767911143   -3.74858531454158   -2.49965149521451
O          -0.85907278256442    2.12963824084717    1.40595956547557
H           0.01942480993665    2.07156044800679    1.84680021291468
H          -0.43811618239205    2.08348550637198   -0.09947638708019
H          -1.23577375530063    1.23325967890779    1.46003019001916
N          -0.21783785189776    1.76417174043121   -1.09989337693736
H           0.09686983472326    2.52724670571621   -1.68791719145154
H          -1.08720104163036    1.32505696728451   -1.46338698576033
H           0.55198012540928    1.02342466206432   -1.01282711365333
