    26
        -50.45283102  Gyration_radius:  2.51996077749 Dipole_moment: 2.947
 S           0.15398513537417    2.01988699454374    1.19823378858444
O          -0.12832247840097    1.47345938921905    2.50459826991873
O          -0.76594905562996    1.56527454954626    0.16329691715489
O           1.53696585898847    1.84794530209261    0.78247640667076
O          -0.09215508755939    3.58689087796561    1.31641233483681
H           0.26822226487629    3.76383225761736    2.17864930598180
H           2.19559934836423    0.42216672396238    0.72407160136580
O           2.55711706462560   -0.50592032134716    0.68014612956122
H           3.50846269179722   -0.42226700098908    0.75708909363933
O          -0.15627185159478    0.72318303436004   -2.09087317638303
H          -0.25472760060574    1.20603972111401   -1.18365647832090
H          -1.12253389371097    0.24952610044631   -2.10389443565586
O           0.12581915567336   -1.09711637822912    1.91285136852451
H          -0.08515851778212   -0.18701787188156    2.20473289065048
H           1.06481868959771   -1.07475210554925    1.67949978035218
O          -0.91508482462641   -2.33198337415373   -0.13791528260769
H          -0.62726824254213   -1.81332337357489    0.66309743596382
H          -0.95407571022632   -3.24507882595014    0.14983922652893
O           1.21017241310858   -1.31063917209534   -1.50004733638615
H           0.47911586952111   -1.81630714209521   -1.09074859451845
H           0.50090194895068   -0.06784017534666   -1.92167306992771
H           1.80254693386033   -1.06314926232075   -0.75858677435938
N          -2.38131017579005   -0.37857775453028   -1.67386323640662
H          -2.07983772957569   -1.22463147410377   -1.19159991941298
H          -3.14739739348736   -0.59641361524432   -2.29613391424272
H          -2.69363484318976    0.27681289651787   -0.96600234153412
