    26
        -50.45611360  Gyration_radius:  2.60966371404 Dipole_moment: 8.302
 S           1.09462990806000    0.17363222757608    0.85611300655607
O           0.49108925221016    1.21765586740519    1.62716768110878
O           1.09298741814061    0.42261840811598   -0.58454033594592
O           0.24892839550510   -1.15736402528124    1.04844587701321
O           2.43031018602565   -0.23010738901190    1.31596360490742
H           2.58021343065822   -1.48505889702580    0.76932354867963
H          -0.70679642519153   -0.91388791867141    0.90344006697584
O          -2.23728886206182   -0.50164989159499    0.67951974891936
H          -2.82930288498584   -1.02622789384281    1.22076426962514
O          -2.28468777942908    3.14561318570238   -0.72954377830841
H          -3.12158341034916    3.30084896570185   -1.16918857117679
H          -1.87731859989372    2.36970434218174   -1.17906145504886
O          -1.34038028908645    0.81547216379272   -1.66333805240098
H          -1.82437983392607    0.21074310426034   -1.08740237241013
H          -0.41471778617322    0.76874485436026   -1.35901108666063
O           2.10448216155713   -1.39568256629791   -2.12541298175515
H           2.74520314524398   -0.95687944215675   -2.68755206404022
H           1.64582119749585   -0.66716153507607   -1.62665141924359
O          -2.11283201539590    1.86178004854544    1.64429552327698
H          -2.21493455490157    2.46991721024396    0.88151962573873
H          -2.26023302682590    0.43997291678497    1.07350422482412
H          -1.15094123457702    1.81210889441181    1.79805694544134
N           2.52582551306989   -2.48000973427946    0.22960860271432
H           2.46634294220928   -2.21624577374937   -0.79350192865449
H           1.64047419971962   -2.88791793076254    0.52200874603400
H           3.30908894296624   -3.09061918129995    0.43547256380049
