    26
        -50.47636629  Gyration_radius:  2.42303906659 Dipole_moment: 2.569
 S           1.56930061352597   -0.16833576050793    0.23733848954471
O           1.71095127180155    0.53398126275907   -1.02563693229463
O           0.99385706763118   -1.49600253381155    0.06997008389101
O           0.79693298843104    0.63192475569666    1.19268977126463
O           2.98701813911566   -0.38491424550315    0.85191056374716
H           3.33160766016795    0.52502570521960    0.92862223819903
H          -0.61319117970446    1.17912410055342    0.59761437624295
O          -1.46698449517030    1.50272969382680    0.21510701484773
H          -1.65999081927907    2.33299366838382    0.65347471054863
O           2.93197962928310    2.25469969400299    0.68546589042004
H           2.10389521586774    2.11616121086200    1.16437026382759
H           2.71248412799335    2.08802375330018   -0.24138139754666
O          -0.71663026164846   -1.53558057658576    2.14296786733512
H          -0.04899627861041   -1.73577476408947    1.46211707545914
H          -0.42855355319258   -0.69046789841484    2.50174540376127
O          -0.58503345229373    0.83771900720905   -2.32748431881142
H          -1.05906012633898    1.29767724850808   -1.61602474830798
H           0.34437835328517    0.79782402034579   -2.01551438930563
O          -2.70560037303187   -0.95793925966129    0.44532872481701
H          -1.89219132297581   -1.45672435454705   -0.79743233873399
H          -2.13918949305721   -1.28008427977312    1.18378510720435
H          -2.52549028629355   -0.00378789525396    0.39563731938796
N          -1.11807881833944   -1.59973414420391   -1.52720145749523
H          -0.23031939761689   -1.72836324467090   -0.98405904158083
H          -0.99369431401173   -0.67835729316935   -2.04801458589742
H          -1.29940087552204   -2.38181788047264   -2.14539569055013
