    26
        -50.45755045  Gyration_radius:  2.53738888775 Dipole_moment: 10.364
 S           1.06986369234040   -0.30083003913292   -0.21324292882274
O           0.59088780456654    0.98106462991564   -0.72230810473666
O           0.65452123554007   -1.42190771722061   -1.00640268601104
O           0.44687222321009   -0.44404816444540    1.23591200113290
O           2.51082411911255   -0.25698095256416    0.05994133801380
H           2.58755767792545    0.57497895385772    1.16188207191774
H          -0.52565615861220   -0.62549287220946    1.11475509054991
O          -2.06684638577430   -0.98512004214114    0.89413985665345
H          -2.51435163170459   -1.32486252174192    1.67086021107876
O          -2.04891302241259    0.81081193685267   -1.31231784385995
H          -1.09818379548858    0.97808074208700   -1.18893320076932
H          -2.33518622160667    0.36067529484054   -0.50872313577274
O           1.10533071865872    3.07796898746896    0.69953595654298
H           0.80227201712789    2.32882553557590    0.11939743285155
H           1.44388732345079    3.74618327031920    0.10102146981192
O          -1.57770438093248   -1.35161721191343   -2.89664946781345
H          -0.63176091528480   -1.34522355808984   -2.70803443977766
H          -1.91163271009351   -0.51753783811751   -2.50969232136330
O          -1.60822865353651   -2.91338794108611   -0.74100489056138
H          -1.97465009696999   -1.76958264709211    0.25666427011153
H          -1.87145403532688   -2.53129820621696   -1.60992689103239
H          -0.64879813311537   -2.76924087323195   -0.73878244050757
N           2.46098598668029    1.27321709037571    2.04094175577491
H           1.79791099827404    0.81155904019387    2.65937394394592
H           2.00683977781522    2.13718734180184    1.62836136424821
H           3.33561258606673    1.47657776190474    2.51323157833985
