    26
        -50.46485773  Gyration_radius:  2.56478204703 Dipole_moment: 4.103
 S          -0.10073974003219    0.77501174977282   -0.49612934254138
O           0.52720255041731    0.65705541025274   -1.90890283823611
O           0.77763530073605    0.08083215733280    0.45048954373099
O          -0.19864524257827    2.19344653115811   -0.17515257344766
O          -1.41579399721536    0.14350223803798   -0.53425841179933
O           1.84126995793762    1.28170499666570    2.53615762218564
H           1.52988488202457    0.74603377958036    1.76780229875429
H           2.59942135986353    1.77530220562475    2.21937734061508
O           0.14545414409229   -3.19129525816026   -2.04328955388720
H          -0.55073520388393   -2.54577302124983   -2.30955633675695
H           0.24126133355295   -3.80065850922627   -2.77665748386931
O          -1.49501311235175   -1.22314687582999   -2.80518065131204
H          -1.62433950409914   -0.75767112943881   -1.95293778513403
H          -0.99227054831344   -0.60762396416726   -3.34506762869350
O           1.99121998181809   -1.36216661553845   -1.44118366357093
H           1.41102131916667   -2.13095900948216   -1.65066086072692
H           1.17561935405075   -0.12299401774860   -1.85797198901537
H           1.80878751664565   -1.13904157943117   -0.51500442386208
O          -1.70338286460939   -0.25849227954485    2.02995829656357
H          -1.18619788326452    1.22080899393451    2.39652415914864
H          -1.75082901136240   -0.17435945424968    1.04750659487390
H          -0.99995022317295   -0.89436481175396    2.18551020327727
N          -0.66070642360438    2.14193789310979    2.34970479153192
H          -0.54076349328881    2.32381744827226    1.29619033024186
H           0.31011687108609    1.97431266614119    2.70187671884642
H          -1.13952732364064    2.89478045593460    2.83085565308292
