    26
        -50.47636620  Gyration_radius:  2.42310703505 Dipole_moment: 2.567
 S           0.69380010983513   -1.05521212464187   -0.97579781111311
O           1.65930750693383   -0.68847678959181    0.05150221969477
O           0.54996697154521   -0.02525317893914   -1.98937802115440
O          -0.60713325638275   -1.39248311035389   -0.39013247668921
O           1.24905906078214   -2.34786535664632   -1.65040007886339
H           0.58026693714342   -2.53955785816363   -2.33496577791409
H          -1.44882665837907   -0.09796241764059    0.11805003914000
O          -1.94498545897307    0.70354770063221    0.42026905132661
H          -2.87571656716012    0.49153044553095    0.33335325184359
O           0.34831468186264   -1.51224982563590    2.24867078025399
H           1.00480503672934   -1.31231384742121    1.55703991326713
H          -0.37768235125570   -1.91548437479212    1.76251825956473
O          -0.98643793472073   -2.00953553541851   -3.02380601279154
H          -0.63191038492997   -1.12210126322480   -3.17261089676421
H          -1.35750534141828   -1.98107594828911   -2.13190973498067
O          -0.20807768834474    2.32465201866980   -1.00796865049032
H           0.09659396426194    1.55979574555392   -1.54164107082646
H          -1.02010058675012    2.01090829640440   -0.57826849251971
O          -0.39831170052156    1.02134428682527    2.68972477152292
H           0.75256424340008    1.59611986444797    1.79554730826944
H          -1.13064150801430    1.02654166628754    2.05024557152879
H          -0.13202898912599    0.07544418976236    2.75545901418155
N           1.41794069782280    1.78381714339009    0.97430768674202
H           0.84256003264970    2.21321615883127    0.18681187923627
H           1.70847183589040    0.84143581805551    0.61767449147051
H           2.21570733711477    2.35121829635454    1.23570481598448
