    26
        -50.46793854  Gyration_radius:  2.51175363958 Dipole_moment: 5.771
 S           0.19192620306643   -0.62758791008344   -0.48290591097065
O           0.05771438939329   -1.99244114565267   -0.03901399631817
O          -0.95852674792150    0.20279000112854   -0.09775809071272
O           1.43374474231833    0.01168176394080    0.22433075713130
O           0.46146675721547   -0.49159712558955   -1.90948344982152
O           1.66921147571784   -3.20695839934476    1.68720643781396
H           2.44977612024649   -3.49803329024029    1.21405969582407
H           1.04075763658218   -2.88785728846918    1.00551798968429
O           0.62595884531322    2.58004096583731    0.03384280407771
H          -0.19435814805788    2.48448682048798    0.52754845310319
H           1.09534494711949    1.73363078010024    0.16445214455259
O          -2.61744821984014    1.37807770120994   -1.77857192646268
H          -2.11861610415883    0.92598256000289   -1.05968937365107
H          -3.18676486694692    0.71124718224085   -2.16507052812729
O          -1.33030374421022   -1.01667659691506    2.23032200355269
H          -1.33763250170648   -1.93990721046534    1.96211275348836
H          -1.31986320833349   -0.51383799201755    1.39236633329745
O           1.28343180269652   -0.72005239897383    2.61684871629424
H           0.30270909755869   -0.76223747650469    2.71332575186490
H           1.56683472722844   -1.65427598636459    2.53168763956260
H           1.41876994151283   -0.26524965661920    1.22859318143904
N          -0.09993726284742    1.94079968415494   -2.43522660129458
H           0.27991136817552    2.37538410226367   -3.26844141186640
H           0.22658928395040    2.40584917700142   -1.54660585057913
H          -1.14366704387046    1.92278349098187   -2.42357632565377
H           0.20297049980227    0.90395822788342   -2.32587120622465
