    26
        -50.44835631  Gyration_radius:  2.6472535591 Dipole_moment: 5.190
 S           1.06867769111993    0.39301188912149   -1.00070951100883
O           1.00875529357922    1.27041440069305    0.12339343977663
O          -0.03087356554664    0.48177083752896   -1.92832529371973
O           1.19142129250410   -1.07666181182885   -0.52500255571575
O           2.39164771553773    0.58576838142416   -1.74652243740472
H           2.27362516756568    0.04981077658642   -2.61600924664086
H           0.39810566163682   -1.35492772937067    0.05300172359226
O          -0.79310133137441   -1.78397457690296    0.89332235271812
H          -0.66053255865480   -2.68229450846126    1.20196183712575
O           1.47134610662756    1.03552141944846    2.75447409066347
H           1.39455425378881    1.11910820937005    1.78522330136232
H           1.35528820928709    1.92373225465986    3.09807536527417
O          -2.39332532255928    1.60306836391941    1.85967515431702
H          -2.34347704458657    1.22535300367570    0.95314377841956
H          -3.32675866446558    1.67509556175327    2.06426592719486
O          -2.29432915823720    0.21231242844300   -0.43935677934357
H          -1.58392121495194    0.45303550710012   -1.05576687719639
H          -2.02769973690535   -0.63547806817535   -0.06159647370099
O          -0.84762445768613   -0.30709684016279    2.95461555150671
H          -1.43981480466586    0.42575577484190    2.67693437584611
H          -0.81284085877000   -1.19899904026650    1.74303684282610
H           0.04401273457040    0.10010602298827    3.00897251729750
N           1.65587061737492   -0.76435551454460   -3.79187485118265
H           1.84615529432731   -0.48514826483382   -4.74493224646544
H           0.70709392442341   -0.49651942859566   -3.54273321601661
H           1.74774477605004   -1.76840905839928   -3.71726676951333
