    26
        -50.46337594  Gyration_radius:  2.55581139566 Dipole_moment: 3.974
 S          -0.99338551656290    1.21144496936871   -0.82389199495159
O          -0.06867935475643    1.77814420323773    0.15080233213241
O          -2.11657259630647    0.54554044383648   -0.21202629716440
O          -0.27139375623166    0.31836079202354   -1.74359968020698
O          -1.55640161423062    2.39172763982947   -1.68134996221221
H          -0.76589072731049    2.70248807718850   -2.16112076838841
H          -0.28427712291572   -1.09970263779794   -1.02478355630581
O          -0.23544516230356   -1.99045166458783   -0.58829785049278
H          -0.92307229118920   -2.51212491213732   -1.00526600215050
O           2.48230776038366   -1.76545094325227   -0.22612117418190
H           1.57218574119737   -1.91931873619288   -0.53793177092170
H           2.74203085942992   -2.56235664222048    0.24025859768147
O           0.76863537946254    2.38008101104284   -2.97861777881881
H           0.61395481063435    1.50064953873067   -2.57622271166126
H           0.72474351816129    2.25436357854006   -3.92910300040315
O          -2.23441269166307    0.13150180044172    2.37744646970207
H          -3.15347962752795   -0.08670193738775    2.54019975252071
H          -2.18712901459366    0.38861257508427    1.42761897833185
O          -0.23459873720263   -1.59953290475500    2.15264904619530
H          -0.36678204362568   -1.87923570653063    1.22916620207595
H           0.85671382400092   -0.51241492925828    1.88213298601577
H          -1.01083516389210   -1.03359146309362    2.36842563405150
N           1.52787039550416    0.18129712963885    1.41350625475367
H           2.09441769009081   -0.37231825523176    0.74023269094792
H           2.10767552198111    0.67093171988619    2.08523458055293
H           0.91181992946263    0.87805727360738    0.88065904289979
