    26
        -50.47215831  Gyration_radius:  2.4323156393 Dipole_moment: 2.556
 S           0.56492720999439    0.75286849253170    1.21513681639487
O           0.17178165220044    1.47220963317596   -0.00601339246940
O           1.49353273057716   -0.31879204392936    0.91224355739468
O          -0.60509189171091    0.31933212919521    1.95915312023934
O           1.35329158311453    1.77954266950259    2.09229675595498
H           0.67898989504365    2.46046862480709    2.28766794493801
H          -1.47324371337106   -0.92175261893452    1.31158260874213
O          -1.96620431284476   -1.61951772280441    0.82132427361666
H          -2.64191352410971   -1.94458295867374    1.41829370376066
O           0.42988185923437   -2.59918099794214   -0.17889628279659
H           0.91776072624440   -1.92244336808188    0.31930113064770
H          -0.48357042169514   -2.52687863387813    0.13885110598515
O          -0.99930201762320    2.97671146472542    2.05665530458504
H          -1.24611944977097    2.05427607257036    2.22855245760416
H          -1.00826091600599    3.06628981797483    1.09802254637763
O           0.32107207489920   -1.44034280102802   -2.55607769738686
H           0.39121006599940   -2.07957937027555   -1.80384160075114
H           1.29178707072511   -0.44809357332471   -2.13795434585989
O          -1.62095156724871   -0.02104097755495   -1.43397043895640
H          -1.07895997509437    0.61574142247400   -0.93751047679442
H          -0.51747772704236   -0.95297375931596   -2.36940009223177
H          -1.97058216018125   -0.63399553122923   -0.76963448320504
N           1.89972548290739    0.31463149434855   -1.59206593312906
H           2.67214620753212    0.69369641276285   -2.12768397096197
H           2.19200582419423   -0.11889485982293   -0.69617156358128
H           1.23356529399328    1.04230099253113   -1.24986104799290
