    26
        -50.47215849  Gyration_radius:  2.43227342343 Dipole_moment: 2.539
 S           1.12911831431020   -0.97583740933977    0.36835204496768
O           1.39914211690487    0.22616146998798   -0.43517229109062
O           0.06095910335172   -1.76394988003106   -0.21558789531490
O           0.90440323700485   -0.62773069090340    1.76056467384715
O           2.41826612358605   -1.85668385713976    0.28310004714690
H           3.09422895759845   -1.29339960039540    0.71021376952957
H          -0.51748529656794    0.12668967800399    2.11130124004192
O          -1.35819782052973    0.62853561392080    2.21882271745841
H          -1.50993797036699    0.70448431316577    3.16211105972476
O           3.43126932585472    0.25609352077304    1.49859990332638
H           3.19759381473456    0.84880168871697    0.77652305779390
H           2.60807299954561    0.12223530798605    1.99388159530511
O          -2.49605523097414   -0.84541967365904    0.16199158933046
H          -2.36614117060659   -0.31649232390385    0.96456899286704
H          -1.67397591460607   -1.35474811393861    0.06771381416137
O          -2.16959237963822    0.93133446185861   -1.77248248097147
H          -1.05104090137578    0.17640795038878   -2.30285861055863
H          -2.52904733331313    0.27621209054384   -1.12358779453403
O          -0.55590917076335    2.09183784702800   -0.01299481817857
H          -1.68772351144044    1.58007661542027   -1.20473028070986
H          -0.93793623656110    1.81859857299101    0.83459910181083
H           0.23104606470930    1.53327995760120   -0.13338106071703
N          -0.12570893697863   -0.43120324700971   -2.45666019170496
H           0.64227023667934    0.05239970427523   -1.94080680398928
H           0.09464070505101   -0.61662051415833   -3.42840444816172
H          -0.23225913548888   -1.29106347225219   -1.88567694144733
