    26
        -50.47215847  Gyration_radius:  2.43222955548 Dipole_moment: 2.539
 S           0.81707010913362   -1.27092781832562   -0.28510275125831
O           1.45151643714546   -0.07271013369481    0.28512649658584
O           0.09579675896501   -0.94960975505405   -1.50148334295431
O           0.00833936691965   -1.95180408094588    0.71108146152404
O           1.98300323523171   -2.22363494138526   -0.70713399259937
H           2.41557650510286   -2.42756446676240    0.14604895130826
H          -1.39549723456731   -1.21096540941582    1.15049376853112
O          -2.18035458778633   -0.66957788847665    1.39809980782308
H          -2.73450026446937   -1.22934000898753    1.94418028641275
O          -2.33304321239325    0.28967994222868   -1.20010532042268
H          -2.55515784615403    0.00292606668048   -0.30047027174223
H          -1.57120655310486   -0.25843510095177   -1.45153504301665
O          -1.12680903335684    2.61045065649087   -0.79493455843862
H           0.08672535410146    2.10849861992500   -1.40942172523009
H          -1.75707245150356    1.88779348043935   -1.03989767283503
O           2.41405716001410   -2.15824216966774    1.89612400053261
H           2.54301082798815   -1.20399116444786    1.90420204008216
H           1.45300131870954   -2.28453218324736    1.86087608782989
O          -0.42681654540623    1.49373019162512    1.50937288569948
H          -0.92709449866581    2.43210451390329    0.15569405630095
H          -1.15367714050979    0.87393404628819    1.67211374558966
H           0.31361470673538    0.94637759541569    1.19637454605180
N           0.96470129708418    1.50376109787002   -1.74501010136061
H           0.58897042898744    0.61766246841393   -2.13288341645564
H           1.43779086499446    1.15463983961424   -0.88247667654067
H           1.58805501679251    1.98977660244654   -2.37933327144169
