    26
        -50.46970035  Gyration_radius:  2.5893768092 Dipole_moment: 2.421
 S           0.16794005326286    1.32583784531235   -0.97195391821626
O           0.01277533260876    0.33563036498767   -2.01420559631176
O           1.17930487500085    0.91616944292415    0.00007108018955
O          -1.10887302323296    1.62740406371936   -0.31472511107047
O           0.69302730580152    2.65347547193477   -1.60076356746269
H          -0.08885632661317    3.00467081482359   -2.06992447884146
H          -1.60810521367335    0.29746142873280    0.43996487576629
O          -1.86228046012721   -0.54311582897901    0.90043165850143
H          -2.79750109150154   -0.46387568758629    1.09667585770876
O           1.79255067450328   -2.19734331202944    2.41830351291448
H           1.33432926757411   -1.33058193603695    2.58452842628416
H           1.23782919474438   -2.87259485521540    2.81164356712012
O          -1.79826577851104    3.29423973331275   -2.21847734516276
H          -2.10522031639099    4.12361983965724   -1.84503368326309
H          -1.81892407971752    2.63704751977833   -1.49366171891651
O           0.38579780149812    0.02483164100146    2.44603903197071
H          -0.49335928764700   -0.24014432159300    2.13340093962978
H           0.75938197710499    0.53384020521855    1.70480519986580
O          -0.68306692772399   -2.02746256380910   -1.09597226873274
H          -0.55370623997421   -1.22117858742121   -1.64384197199931
H           0.80343459555958   -1.98859690980680   -0.57510031298707
H          -1.23004089487054   -1.72227110559011   -0.35139698670373
N           1.74306793250846   -1.65140363600208   -0.18929671159899
H           1.65410559044892   -0.59811288133617   -0.16283636807259
H           2.51271917105076   -1.92831263712336   -0.78783964935652
H           1.87193585815288   -1.98923409879847    0.79916552875115
