    26
        -50.45611369  Gyration_radius:  2.60955452188 Dipole_moment: 8.324
 S           1.04024898355581   -0.28864486727983   -0.89362054589364
O           0.81029601070982   -0.95489084339513    0.38734291110587
O           1.66827680553999    0.99232932644734   -0.77777873994598
O          -0.40365848702709   -0.09469689708321   -1.52620416153961
O           1.68507025651502   -1.19979305457739   -1.84883227956678
H           0.69080809529721   -2.10880973898272   -2.13069011752045
H          -0.84795603993157    0.63326169356543   -1.00991486029608
O          -1.53816024652636    1.81415343895541   -0.17853286949051
H          -2.13636730132360    2.32879497734482   -0.72256517157875
O           0.74162379315938    2.58875479821500    2.90351117099513
H           0.22261472235463    3.03864787998414    3.57139528574784
H           0.28839576262418    1.73061297542412    2.73511568078544
O          -0.67368766564107    0.44091393311936    2.14454754484335
H          -0.06110034222986   -0.10459470623729    1.61647111494750
H          -1.25591510281338    0.85958976545511    1.49855059971836
O          -0.38453097376206   -3.25098234203072    0.35162227713704
H           0.02721728906631   -2.35334947334584    0.47383066300248
H           0.15641176194609   -3.85283274555126    0.86558038599893
O           0.56245691092297    3.19740336879462    0.27484736701948
H           1.15485988039698    2.54395576215871   -0.14174665736417
H          -0.74270180822031    2.42433276685022    0.01489049436163
H           0.73620718965642    3.11708465323077    1.23685283431673
N          -0.23316021175162   -2.75890547658584   -2.22430601653923
H          -0.37565956610482   -3.14841906151468   -1.25084675823348
H          -0.14293076539221   -3.48190817398503   -2.92993914692858
H          -0.98865896096893   -2.11200795895448   -2.43958099513879
