    26
        -50.46455194  Gyration_radius:  2.42074659649 Dipole_moment: 4.942
 S           0.99115954716581    0.65866527374813    0.58124645917543
O           1.42469655383512   -0.66720521254893    0.99222106862710
O          -0.08987579002557    1.17438984209361    1.41412288676855
O           0.58782076844130    0.64452810465792   -0.83202435939364
O           2.16923641742097    1.65102691287814    0.71900505451788
H           2.89702773522428    1.19464309232544    0.20835860711313
H          -0.36514470515358   -0.57296155650057   -1.27974457684258
O          -1.01236754441577   -1.29391090414411   -1.49861264616271
H          -0.89290581630710   -1.48693279942496   -2.42947407016171
O          -2.04144323620199   -0.35761981699171    1.82316035093139
H          -1.27058814026704    0.32110289481004    1.80120034796939
H          -2.59353553667355   -0.13472959086473    0.93174085988734
O          -3.03310099293478    0.16871069867800   -0.40523001764581
H          -2.63263978555748    1.05856037661554   -0.58416246758153
H          -2.50550028592516   -0.45237765815416   -0.94272970542947
O          -1.50633482300046    2.30131496103417   -0.71920587856880
H          -0.69528605264211    1.78621490570890   -0.90247979301796
H          -1.36272260990424    2.66463975025171    0.15938712078334
O          -0.63681984213522   -2.28896240159481    1.03953476265097
H          -1.55383789372936   -1.26123290832997    1.61711494114949
H          -0.83392700528280   -2.27847158633784    0.08869545634197
H           0.22568442552733   -1.81627390466840    1.12159491971082
N           3.64849491937540   -0.01503165626563   -0.62289720843804
H           3.07792061171629   -0.69857065975069   -0.13210473137480
H           4.62220366833188   -0.27956660622036   -0.55025469022985
H           3.38178540314572   -0.01994957094968   -1.59846268075793
