    26
        -50.47215852  Gyration_radius:  2.4322978644 Dipole_moment: 2.541
 S           0.12907201617425    0.49455332665264   -1.44963113849299
O           0.84872408657275   -0.76158890306301   -1.36487363930856
O           0.46201682318495    1.37204608521909   -0.31717240618018
O          -1.30939826131455    0.33635834947633   -1.57575489642562
O           0.65922352832481    1.21578945991367   -2.73168617160418
H           0.12660808574821    2.03580985222571   -2.75481564325176
H          -2.05262820159343   -0.58418522798131   -0.42988739678351
O          -2.42024293286544   -1.09321929391576    0.32914613990555
H          -3.33690401874049   -1.27429226007416    0.11574443366167
O           1.08228128620726   -1.30038735809296    2.41936712199059
H           0.68379658519555   -1.98400447293746    1.82499760669457
H           1.96177709283954   -0.62966690306495    1.48179988844071
O          -0.09466879212588   -2.60205669159632    0.43778996246903
H          -1.01714033362524   -2.31024958506241    0.50620420873727
H           0.26141129215991   -2.11438626951988   -0.32340025286735
O          -1.13437344086808    2.99231241623066   -1.96112834663310
H          -1.62646028961166    2.16229885941867   -1.86219558594444
H          -0.70694717879299    3.13506094641926   -1.11008168291497
O          -0.80644803291085    0.50351628449050    1.94502160158210
H          -0.41166841286804    0.93978165052352    1.17068946840263
H          -1.53000687090544   -0.03736144688905    1.59432125215324
H           0.36911153766246   -0.62245822333194    2.50442485700744
N           2.41901479093768   -0.09255225610546    0.61493467692500
H           2.19210546068878   -0.64424397880336   -0.23419936090162
H           3.40862547651400    0.10032103691094    0.71827530895045
H           1.84311873400533    0.76280464303764    0.45210997436465
