    26
        -50.47029300  Gyration_radius:  2.48013932835 Dipole_moment: 3.132
 S           1.79935315354068   -0.97824826043964   -0.00418048059715
O           1.67557376395506   -1.14387204764175    1.41881605110917
O           2.15976928178268    0.37503189322872   -0.41825329014898
O           0.61889433273680   -1.43540517447780   -0.73503698729485
O           2.99433719450027   -1.90660982413092   -0.46843567635625
H           3.06664661749304   -1.73522140966930   -1.40219369431928
H          -0.48167490769968   -1.28577402297970    0.48791591492074
O          -1.10618376676716   -1.10537654475875    1.22580436603597
H          -0.63148341914541   -1.39675580794768    2.00910332847484
O           1.61501961609906    1.40017198624400    2.17644453012664
H           2.19883899902354    1.73862239611503    1.49278473117977
H           1.67569105212473    0.42916873064292    2.08002745555802
O          -3.19240291022944   -0.91607123735639   -0.58439804805505
H          -2.59844265356253   -0.96809311865038    0.18129292087367
H          -3.62756762871254   -1.76731082023767   -0.65092537960161
O          -1.22189002751516   -0.28237549973421   -2.34187281961268
H          -0.56308154017686   -0.88085423821355   -1.94630819424022
H          -2.05013751939761   -0.46228509048799   -1.85207916397900
O          -0.92824414878152    1.63280807396784    1.37495841864747
H          -0.05894157120481    1.68184771186715    1.83267700465743
H          -0.50413422538900    1.78397130726679   -0.11845164087708
H          -1.18688183121793    0.69411583392193    1.42700853223785
N          -0.03370983491260    1.69018954632346   -1.07808034603742
H           0.07582860153160    2.59054116533574   -1.53052025846832
H          -0.59459896205039    1.01140907213860   -1.68002600271827
H           0.89942232394589    1.23637538973671   -0.89607127151756
