    26
        -50.47063142  Gyration_radius:  2.42488517313 Dipole_moment: 5.221
 S          -1.89373775571263   -0.48587122652606   -0.58903448138042
O          -1.12107248273967    0.27864337002506   -1.57478277364271
O          -1.99556781023420    0.20333351400716    0.66944415024902
O          -1.40360368736127   -1.85098409132979   -0.48755320222219
O          -3.35723039591589   -0.61377778771923   -1.18021459220278
H          -3.30980922507145   -1.46181284066745   -1.60811948256793
H          -0.81695386791514   -1.93002129080982    1.10311733162820
O          -0.53133903798629   -1.76775812049357    2.02255574539941
H          -1.19983105553923   -1.17076667844122    2.37168096894991
O           0.84381497019845   -1.43031888121680   -1.90049255232913
H           0.12676418552258   -0.76616482368397   -1.99650758653568
H           0.40496364341018   -2.13316506621409   -1.40449744012980
O           0.51151982389796    2.22556353247940   -1.01801713294950
H          -0.17429593287729    1.53427204146935   -1.20813913213931
H           0.41294490253522    2.88843250628493   -1.70279968885166
O          -0.18200179519309    1.90620757494750    1.70156255852315
H           0.09815188023231    2.33158081884769    0.88113696688792
H          -0.94359712094157    1.35322531503561    1.44381102133093
O           1.53050495751780   -0.08278745088302    2.06564393190333
H           2.01204572163917    0.03129787324576    0.67876730473965
H           0.96490632243757    0.72530133538937    2.13043440733069
H           0.88736229074544   -0.82776862013503    2.12353942486620
N           2.25753550935806    0.21569462328922   -0.37906124168065
H           1.81890545823299   -0.54037114565347   -0.97642383595193
H           3.26013510047413    0.26174032626548   -0.52042318221930
H           1.79948538128458    1.10627520248977   -0.64562746700281
