    26
        -50.46455203  Gyration_radius:  2.42067600035 Dipole_moment: 4.946
 S           1.23214539987431   -0.41480869525212    0.25226491855658
O           0.82904144507422   -0.17519796946916    1.63374016858840
O           1.61780387307153    0.80814466622795   -0.43367595515416
O           0.15669241165570   -1.09219511789321   -0.48580291409656
O           2.44028824859827   -1.37881691056154    0.30341046919517
H           2.72131440542787   -1.42380987363701   -0.65460631406890
H          -1.05519367416215   -0.15546629150240   -0.98080700747893
O          -1.81854587138627    0.44049202295374   -1.20145100609104
H          -2.22911042483528    0.07062348443863   -1.98415137046725
O          -0.82479404236311    1.67679842077554    2.03183507340454
H          -0.08832310439413    0.96106021053543    2.00779848518664
H          -1.72011854263382    1.11734627358766    1.84530867600812
O          -1.30708187021953   -1.97987764901327    1.56654463607704
H          -0.79435824734334   -1.81551806644649    0.74996936412616
H          -0.67698890137855   -1.82689591759437    2.27659212490854
O          -2.73996952241409    0.22859384192972    1.35307375062827
H          -2.36582663578871   -0.67325604863625    1.52938162763383
H          -2.66535261944346    0.34260407458512    0.38643505964028
O          -0.32944500999315    2.55834810432681   -0.26910062952057
H           0.50830435850748    2.04968866925945   -0.38542500495144
H          -0.98749365310831    2.07158394237630   -0.79177848392560
H          -0.65242850552294    2.20919864631841    1.14655570814120
N           2.74660372415542   -1.03180536228151   -2.25592748168408
H           3.56656044508978   -0.96331956640516   -2.84449502583245
H           2.42009383164649   -0.09686018224741   -2.02611931648772
H           2.01618248189405   -1.50665472637355   -2.76956956234572
