    26
        -50.46455184  Gyration_radius:  2.42068765609 Dipole_moment: 4.946
 S           1.16347885379865    0.51757366772800   -0.36407586673886
O           1.69645695233754   -0.75742958368465    0.08883144179089
O           0.88955798238572    1.43067381759542    0.74025365869285
O          -0.04972496520630    0.30370974513909   -1.16569824374108
O           2.20302069483870    1.21719524711412   -1.27027842393679
H           2.41464392465835    0.50916401346905   -1.94306340096418
H          -1.12484974621717   -0.72618754083704   -0.55370481726380
O          -1.79557043439522   -1.30723751401118   -0.10760069970746
H          -2.30789088048975   -1.71155415192972   -0.80907223958774
O          -0.41955317127122    0.51077171768837    2.68000011129586
H           0.19022309022588    0.97306156367636    1.99450922752099
H          -1.40260462694645    0.66484829455674    2.28095084112361
O          -1.50764328873607    2.38594697523742   -0.33948471366312
H          -1.02650488504743    1.67090794248044   -0.80192150945047
H          -0.81874849097012    2.87994879473051    0.11434112379302
O          -2.57986245904237    0.77692770688392    1.46021118482662
H          -2.34489027627993    1.49308593255377    0.81511515040296
H          -2.54710850639998   -0.04700214754894    0.93756371141669
O           0.06769608592446   -1.81247405982030    1.85386887825162
H          -0.69067689228129   -1.95464938003011    1.26422042502082
H           0.80452423716186   -1.54531081291598    1.25400673219100
H          -0.21920004425642   -0.50358958633425    2.51386055516437
N           2.40256234741360   -0.98643313506939   -2.63691709757240
H           2.24717227893047   -1.40351241585170   -1.72282010008943
H           3.18261200590304   -1.44842105898988   -3.08589750085738
H           1.57288022399729   -1.13001402183344   -3.19719840790265
