    26
        -50.46790120  Gyration_radius:  2.59619628184 Dipole_moment: 7.339
 S           0.00842817625395    0.39688899056752   -1.12857691242147
O          -1.03674984312596    0.15866345184835   -0.10975379112396
O           0.63336818482137    1.68647895005646   -0.94522265325080
O           0.95031493191606   -0.71756583362537   -1.11207593951950
O          -0.70217688354835    0.36521757908619   -2.50593567783513
O           2.53142804244981    0.54450281449797    0.60432267128871
H           2.16615885504775   -0.07183463934278   -0.05761702740716
H           2.13216439349990    1.38257119399797    0.33399111231100
O          -2.94221950287049    1.98317347731772   -0.44961153684656
H          -3.69116329965520    1.47650750376564   -0.76857466337587
H          -2.24696958600270    1.32979273173589   -0.22461265585728
O           0.55866507800112   -3.16221845763004   -0.27743933066114
H           1.39469287438541   -3.61812404923482   -0.38797026350263
H           0.66113417910559   -2.29824386562154   -0.74537209184077
O           1.70014463747476   -0.46568470665599    2.87463718862781
H           2.45705770330217   -0.92245134577141    3.24487779886433
H           2.04002873816173    0.01446042164288    2.07152274325358
O          -1.28671376927608    2.85945822796842   -2.39255432503832
H          -0.99831638037620    1.31312332511970   -2.64927817154814
H          -2.00912648071814    2.79962430221801   -1.73455121449328
H          -0.47052825471903    2.89659927871480   -1.86804531509844
N          -0.37960762142494   -1.60704640748590    1.67242958483166
H          -0.02920667133879   -2.39046169194695    1.07182587766088
H          -0.69664689181063   -0.85089478857655    0.98115160558689
H          -1.15446450513808   -1.89718708471306    2.25865540854442
H           0.41030389558232   -1.20534937794182    2.24377756884676
