    26
        -50.46455190  Gyration_radius:  2.42072955703 Dipole_moment: 4.944
 S           0.61452900862708   -0.62506947480691   -0.99276427828273
O          -0.75388329744080   -0.88410105176669   -1.42712162501851
O           1.04647921986560   -1.53650704863544    0.05488586002788
O           0.75517729182650    0.76710561844807   -0.54308477642736
O           1.51606723435009   -0.80598119673451   -2.23614060488357
H           2.43422008644233   -0.71065199631658   -1.85316889775087
H           0.20370204035120    1.08833868506612    0.93473253038979
O          -0.21603691651416    1.26234096752876    1.81792011989352
H           0.25656251378029    2.00454243088864    2.19712217488922
O          -2.67436731485602    1.34884028464907    0.64890676268955
H          -2.36180024038347    1.66086034401424   -0.23940776376376
H          -1.90874897309687    1.47947377705499    1.24036752322686
O          -2.49300210172629   -1.12438947852737    0.37304454238344
H          -1.86642831540399   -1.13253187052851   -0.44104777534448
H          -2.71055134608507   -0.08335658421607    0.50813118214742
O          -1.44338273287698    1.81860183290975   -1.64060998956737
H          -1.67786531552156    1.09472042038513   -2.22844112525051
H          -0.55872191940798    1.57637526581117   -1.30100428015825
O          -0.65096074841620   -1.44496726241429    2.05275480421235
H          -0.49058569524180   -0.52498228500202    2.31917268513974
H          -1.84567702271547   -1.36689350195635    1.15969223405916
H           0.05050145454672   -1.63820612527505    1.38585491361356
N           3.59253483397458   -0.56501527041695   -0.68877331125816
H           4.50092275070358   -1.01018246000345   -0.68481345294338
H           2.98254622049967   -1.04243398437158   -0.03026933302833
H           3.69876930473806    0.39406995421376   -0.38593811897159
