    26
        -50.46969978  Gyration_radius:  2.58948186772 Dipole_moment: 2.435
 S           0.66685942775748   -0.09308089525616    1.50888561840177
O          -0.76977409394630    0.04190889050243    1.27777189398056
O           1.38228718796495    1.07718235038423    1.05133201208664
O           1.18924833948090   -1.32189392229884    0.90026928628823
O           0.84009257260079   -0.22851532668575    3.05322220203716
H           1.76283793394235   -0.53521493893991    3.15006961300823
H           0.91402303921566   -1.25227884207457   -0.68314361418353
O           0.70573671366677   -1.16756524895910   -1.64884464842683
H           1.26663322293994   -1.80349140011163   -2.09653199445872
O          -3.16694579153828    0.67638416810355   -1.84422627723821
H          -2.85189262549230   -0.17274078963441   -1.43381120710709
H          -3.10485123826244    0.55433424571482   -2.79257184122635
O          -1.92353984449512   -1.36441740886095   -0.74586623397100
H          -1.09660555626467   -1.44524639615598   -1.24626861248547
H          -1.64607674736356   -1.01411319894332    0.11929386096220
O           3.14117261770400   -1.46791569046446    2.64485727037510
H           2.60293454916750   -1.54018650260364    1.83067260690659
H           3.19400883841249   -2.35100248029475    3.01756671412707
O           1.03373052091170    1.56209555464607   -1.50902150535770
H           0.96468709823147    0.63901113511795   -1.80881109154429
H          -0.40197606693222    1.94888613154964   -0.98875029455461
H           1.38940451643621    1.49075311437629   -0.59501855588859
N          -1.31570933381194    1.97206927041483   -0.43179659774180
H          -1.50456789877564    2.89735835580140   -0.06360063277521
H          -1.16136427266296    1.28373104543675    0.35588689604265
H          -2.11035308872340    1.61394878911231   -1.02156487731122
