    26
        -50.44594795  Gyration_radius:  2.64932295384 Dipole_moment: 9.147
 S          -0.05928801275507   -0.82495912939476    0.65329799872288
O          -0.92874297601470   -1.63051875515891   -0.14828553291756
O          -0.69937500295419    0.01175332666374    1.62196234206831
O           0.81467150710406    0.06758173504766   -0.28633620329115
O           0.99702574464138   -1.71868071070110    1.29849689298676
H           1.58773815777999   -1.14853877187158    1.89661494639020
H           0.18025389678506    0.68843256681441   -0.78383771987600
O          -0.85927900121454    1.58801304211281   -1.44134970436571
H          -0.61661791898272    2.51590583789356   -1.44957511385604
O           2.65472373020784   -0.33377460364357    2.64167289655292
H           3.11483322536280    0.11125155948525    1.87598583873766
H           3.28740854191411   -0.93231972744088    3.04518347207573
O          -1.74350448184098   -0.83651087220757   -2.70657062986085
H          -1.32441045012859   -1.31052187334476   -1.97426067930282
H          -1.45577840480427    0.07891727932178   -2.62145218403362
O          -3.64436371649121   -1.02785150607102   -0.70099974917241
H          -2.96969437454695   -1.56394348896259   -0.26618574349498
H          -3.33548458738493   -0.96327794798120   -1.62118574798038
O          -2.68869348956505    1.25386100284000    0.28639373219487
H          -3.22650647188977    0.49106340234519   -0.03768705907914
H          -2.11900885553812    0.88932341585368    0.98596891662477
H          -1.65466580324080    1.51124133583857   -0.79789895933604
N           3.65709060282418    0.68600806678437    0.39000511466033
H           4.38128479019648    0.18718164359721   -0.11142814484047
H           3.87236043265816    1.67409232703051    0.34950516927443
H           2.77802292791125    0.53627086512551   -0.09803414873793
