    26
        -50.47063055  Gyration_radius:  2.42489138319 Dipole_moment: 5.207
 S          -0.80661203247539    1.82525121059912   -0.43314667771854
O          -1.39681674284636    1.37531942879568    0.79920534683989
O          -0.93343225025727    0.82711672655733   -1.50099295683118
O           0.56768179530574    2.28355897936941   -0.30745756886696
O          -1.62279872799952    3.09342433714517   -0.91626207512112
H          -0.93078468231760    3.62420572861481   -1.29550128748186
H           1.01069103346672    1.74562301210006    1.24005864562739
O           1.07080255022450    1.34718522733925    2.12940781102354
H           0.19063959423096    1.46809719621309    2.49805998647360
O           1.62430409948424    0.38735690991802   -1.89215112996249
H           0.65712622717241    0.54031554068970   -1.96601618679615
H           1.90541546054564    1.12586461718370   -1.33703477218392
O          -1.58741768174349   -1.18091488441654    1.62406283967001
H          -1.75351933308201   -1.59692066747127    0.76856294455784
H          -1.63193607930749   -0.22272363084271    1.44415707302807
O          -1.43089796733319   -1.70146488574719   -1.14791483749390
H          -1.32027671820443   -0.72176668228207   -1.25877813921218
H          -2.01752392332171   -1.98071986290965   -1.85214428464166
O           1.03816131159578   -1.30997905541682    1.95491899224333
H           1.23618415073711   -1.64234621424387    0.53410832674725
H           1.22085898365922   -0.35066116114053    2.09017778144291
H           0.05421240939083   -1.37642360790323    2.02327652303177
N           1.23514608704214   -1.86163726770980   -0.54530497032210
H           0.25093442010293   -2.03797276193213   -0.81776639350016
H           1.82358915832152   -2.65897097517149   -0.75818747212703
H           1.54626887761098   -1.00081724733975   -1.07733751842139
