    26
        -50.46235925  Gyration_radius:  2.41919714134 Dipole_moment: 5.447
 S           1.56084345277248    0.04426989756093    0.15641657939632
O           1.66021505622845   -0.59503296693940    1.44107465138945
O           0.87183826466431    1.33048700454547    0.21707662420260
O           0.90918642938782   -0.82052524050829   -0.84571583804384
O           3.01205838927195    0.31431369635587   -0.34676987267914
H           2.90168654997187    0.58303097330939   -1.27758131714459
H          -0.11020304740603   -1.64973158872816    0.27889052724454
O          -0.70490138079111   -1.99031990241934    0.97137522767400
H          -0.11392913796180   -2.21221547592275    1.69658808861551
O           0.23561371398990    1.03192601997790    2.99307634867006
H           0.42929000779461    1.86480524422090    2.55506758646333
H           0.83245117832119    0.38478509964462    2.56548237014563
O           2.11393668387078    0.35827672876747   -2.85193500989364
H           1.52577845847171   -0.16122429691947   -2.26688611798977
H           2.58187508043266   -0.27103941413241   -3.40526839579628
O          -1.62048651688974    1.44730984254533   -0.12348347250623
H          -1.77084299277798    0.72143662370090   -0.87893061163289
H          -0.60271695847286    1.51154539401021   -0.03346148822264
O          -2.01705980078169    0.13716409067687    1.94540962586985
H          -1.28934613339687    0.48829936842860    2.51872522447166
H          -1.90496518868691    0.95006279095796    0.78854792956966
H          -1.69186722723390   -0.73962024853684    1.63841282928399
N          -1.75588786611082   -0.45978033156267   -1.80177931368371
H          -2.35451385144918   -1.21296878945651   -1.48743455679999
H          -0.78759154235538   -0.74832221683575   -1.65765772832031
H          -1.91046162089052   -0.30693229259418   -2.78923990046021
