    26
        -50.46790113  Gyration_radius:  2.59616024457 Dipole_moment: 7.340
 S           1.16029575223203    0.23141133682492    0.17881191143747
O           1.16013352630738    0.47551675218793    1.60271732752174
O           0.66717618848879    1.35700208555874   -0.60813951301391
O           2.61137362637006   -0.04504642425556   -0.29155115173250
O           0.37169100391444   -0.97360012088101   -0.15796429514030
O          -0.62410704251188    1.30877103734586   -2.87886202018934
H           0.00352268474093    1.34010659432162   -2.11661267998028
H          -0.81481910764826    2.22282520388491   -3.09596502634300
O           1.55384636524484   -3.06979322859133    0.97551533110421
H           1.03010195235961   -2.33561657819758    0.59148418968802
H           1.89796988103954   -3.56907658250873    0.23275343871289
O          -3.20510642521812    0.89744053221379    0.53869227321258
H          -3.83297830125736    1.60475550184900    0.38344765005929
H          -2.40597512675694    1.32937255102038    0.94594476902869
O          -1.00095544882649    2.07566038370269    1.32580126329008
H          -0.44343905620401    2.05640802924196    0.52566759229455
H          -0.45438157162711    1.58925561215876    1.95790189976564
O           3.23576238491324   -1.18231200781945    1.92053395358306
H           3.04119749958239   -0.49494851426572    0.49550195889131
H           2.56863571865627   -0.57260170731284    2.27525926810795
H           2.75929234723456   -2.02575550249446    1.77900882181028
N          -1.88315917518368   -0.45662204018158   -1.32996226628605
H          -0.97729685477940   -0.73105699683448   -0.82556779082011
H          -2.50140854188973    0.03311910386717   -0.63016876698824
H          -1.58254284224208    0.21273605092524   -2.07744136736684
H          -2.33482942696068   -1.27795102176179   -1.71680676065066
