    26
        -50.46235928  Gyration_radius:  2.41901091852 Dipole_moment: 5.441
 S           0.97691715010874   -0.51008373495844   -1.11731323959449
O           0.55633534487122    0.88480935724757   -1.21919444929403
O           0.07641552758866   -1.41285639173858   -1.78296552831796
O           1.17328064715334   -0.86637771418663    0.30088485623666
O           2.36561377745091   -0.63209507001611   -1.81627667722512
H           2.97610332023206   -0.14388923097008   -1.23330781626287
H          -0.40482946423377   -1.53669260123662    0.52914026358539
O          -1.34000678442834   -1.80442650417925    0.58375208872889
H          -1.46644328563079   -2.36540913250151   -0.18681135146595
O          -0.92156116837276    1.89221833389250    0.55341944845232
H          -0.27352241695031    1.59433245989210   -0.18108490277210
H          -0.54547143979770    1.44083208500361    1.43344280078863
O          -1.89259058964017    0.21029148517752   -2.54029586616048
H          -1.22437648467394   -0.48768449200447   -2.38495915256342
H          -1.37765261168161    1.00615653242145   -2.69730487202073
O           3.53706886511294    0.25980271874287    0.40054466577250
H           2.66945358852632   -0.15112017288176    0.59171790308571
H           4.20861930388478   -0.34908815938065    0.71579854194190
O          -2.77948728371465    0.36673328499607   -0.05833910122600
H          -2.65527398578666    0.32143336253698   -1.04032221790219
H          -2.40357926321283   -0.47751761030024    0.28020296201567
H          -1.81082616509120    1.33005291617775    0.32207642845877
N           0.02578419534709    0.55121050997253    2.49693957751532
H          -0.67802416266208   -0.01422225966564    2.95464053163100
H           0.63032893424828    0.95585988306081    3.19917239463578
H           0.57772444132225   -0.06226985520933    1.89644272184561
