    26
        -50.46235929  Gyration_radius:  2.4187152147 Dipole_moment: 5.444
 S           0.52359880465948    1.47791704003737    0.08405629413272
O           0.88499521873858    0.73567206528790   -1.12070462632461
O           1.47199404847826    1.30256139716632    1.15116886984619
O          -0.84739558144417    1.11938856031140    0.49478838197087
O           0.50882204255968    2.99262248730119   -0.28650918446587
H          -0.25594875225387    3.09001250925265   -0.88347057132733
H          -0.37523795976101   -0.09544963194099    1.63179682848499
O          -0.01511056935217   -0.81964106363858    2.17502381571666
H           0.69628436623315   -0.40559537044652    2.67190206548232
O           0.03306810163150   -1.60917417232369   -1.46146333664036
H          -0.94643482415109   -1.54563669885257   -1.06709870626349
H           0.37685704082065   -0.64482229510554   -1.44395938121124
O          -1.93966689793201    2.69913732531417   -1.28799466701905
H          -1.74066318222116    2.01684034504362   -0.61499865266166
H          -2.56232670769077    3.31052820765899   -0.88852120115224
O           3.12900580214786   -0.51929580598929    0.14065962452484
H           3.08289627241624   -0.26597968481341   -0.78502814653733
H           2.64882810353406    0.19038802810466    0.61344062048413
O           1.32921452716425   -2.41903704331207    0.49237255818846
H           0.81000415020489   -1.99098809082155    1.21069191204595
H           0.60819289329978   -2.07643058453998   -0.67965969648956
H           2.14476586331324   -1.86300951533213    0.40635297829319
N          -2.20428356850434   -1.26312448539676   -0.29994029294696
H          -1.95311055277393   -0.34243310612118    0.06175438381554
H          -2.33092568739466   -1.88298805371834    0.49013472045663
H          -3.07742295188246   -1.19146235319210   -0.80479458074845
