    26
        -50.46235920  Gyration_radius:  2.41852545745 Dipole_moment: 5.448
 S           0.64855561621919    1.41763782210726    0.19097534635358
O           1.37071676611936    0.29530265530988    0.78415165014883
O          -0.33514457092497    1.97776107971158    1.07839782217508
O           0.06223349423918    1.00421568213961   -1.09829200216661
O           1.69250124445489    2.53410943879541   -0.11833022294438
H           2.23273337647504    2.16820274255414   -0.84295781802572
H          -1.49455087931915    0.60440167997190   -0.45921427770284
O          -2.30124613012530    0.31910747055326    0.00668091012082
H          -2.51479325703869    1.06256724540722    0.57767608281312
O           0.52490287363423   -2.05581708867591    0.47345084757048
H           0.16638595412405   -2.02998345294329   -0.52198937957836
H           0.98057487345719   -1.14807651630544    0.60299887736786
O           2.33595735919843    1.27413760249359   -2.37239819714760
H           2.24999776876669    1.84814648782784   -3.13673592667539
H           1.42826756986285    1.05168418627711   -2.08128078496980
O          -0.24213547843676    0.30901046303762    3.15012864742281
H           0.69017442292181    0.07942478839601    3.11573973525483
H          -0.34126069708804    1.03217268129521    2.49825045442077
O          -1.52467072450207   -1.54403851249354    1.77426656513214
H          -1.97464011492542   -0.95434065655744    1.12740177883258
H          -0.35998059861541   -1.96142097949988    1.07962596510322
H          -1.15224581524982   -0.93034519994014    2.45717895955273
N          -0.42900701562748   -1.70311099148223   -1.85854129936857
H          -1.42381649911945   -1.88553987920766   -1.89940002662254
H           0.00781171019903   -2.07387873577227   -2.69165948573638
H          -0.29732123741014   -0.69133001263812   -1.83612423087632
