    26
        -50.46485780  Gyration_radius:  2.56579815704 Dipole_moment: 4.118
 S          -0.09933260470028    0.88051708392016   -0.26592999062682
O           0.68734292454161    0.25918587618884   -1.32651193244282
O          -1.19654776851916    1.67183666360712   -0.80854855991901
O          -0.59415790495973   -0.13322947563369    0.67037155475414
O           0.82987186810594    1.84414124154837    0.51642692162735
O          -3.15784345156242   -0.53478971604145    1.10643091902764
H          -2.17681454469851   -0.44244813833571    1.04887443138738
H          -3.44709972681216    0.13891766192329    1.72386389887943
O           3.45993969675304   -0.89483708768518    1.28053463757407
H           3.43704107762420   -0.34807493849250    0.46027331452823
H           4.34958401085182   -0.81957697391852    1.62871239395953
O           3.22042405214891    0.80742638121689   -0.76660705528559
H           3.08683223587670    1.68915689792090   -0.40913802443193
H           2.34297849574106    0.54479659992134   -1.11429044494686
O          -0.85056701313293   -1.80601306584574   -1.76147805239469
H          -0.17464168558357   -1.08746423200352   -1.72397729412141
H          -0.75784453146889   -2.27065652654135   -0.92556312028427
H          -2.18904145918986   -0.91232959888533   -1.73938347772471
O           1.36381763411499    0.27797805255684    2.44043689130143
H           0.59884722791123   -0.21441443914156    2.10397684737438
H           2.15852688888197   -0.21759209433013    2.13301238219110
H           1.10863743228102    1.33881734267517    1.35209010138864
N          -2.87772912251280   -0.14035161652030   -1.50161916678626
H          -2.25748899873543    0.72120027316359   -1.32719078951006
H          -3.29470176954203   -0.36110111442871   -0.56788656491157
H          -3.57003297341097    0.00890493315572   -2.22687985057329
