    26
        -50.46361860  Gyration_radius:  2.41423862389 Dipole_moment: 7.894
 S          -0.15961682081036   -1.09701091541696    0.37909689793882
O          -0.68904998719015   -1.31041989750998    1.79928271437991
O          -1.22732845698500   -0.59378281302282   -0.47710401667318
O           0.95313773724365   -0.13606231028343    0.43586974115431
O           0.30107424355547   -2.39720360574534   -0.10674574202660
O           1.11740479862949    0.46186797711511   -2.14776752673092
H           1.25047883542008    0.30101525028962   -1.18797580139987
H           0.42182288343695    1.13788024340825   -2.18985029269921
O          -1.28780197156997    1.73202699014932   -1.63009892147849
H          -1.34297806896566    0.86099889845311   -1.16212814690363
H          -2.18763595042437    1.98561569476080   -1.83830209633656
O           1.75104293643282   -0.05147073580326    3.03921714538162
H           1.72185605846031   -0.96644720415355    3.32452314181294
H           1.63770656200685   -0.06803669886268    2.07196633018727
O          -0.07146481691963    2.34466737266812    0.81339742900946
H          -0.57052346854605    2.45114831079808   -0.00848865231489
H           0.48369587361612    1.55933974652223    0.66854250584787
O          -0.78787276429899    0.92862575825959    2.96376423450288
H          -0.82868179055468   -0.40336062695704    2.27518564517182
H           0.11148603261733    0.81777612124502    3.32675002031008
H          -0.68772801641675    1.60777965038172    2.25997056257699
N           0.01469656451568   -1.85457534349185   -2.56677563883265
H           0.16029562071031   -2.22744682249435   -1.54251762838945
H           0.40119268586168   -2.47630260185377   -3.27000938056503
H          -0.98617247418244   -1.71987074644300   -2.68582672845603
H           0.50096373436218   -0.88675169202058   -2.54397577547068
