    26
        -50.47215852  Gyration_radius:  2.43221001667 Dipole_moment: 2.541
 S           0.89262343532096    0.98316954487935    0.77413875651878
O           1.77502059443961    0.10121402176111    0.03492792766638
O          -0.16544170662080    0.22208763871626    1.45576686051603
O           0.32531262494350    2.05098249475255   -0.03084914286369
O           1.76345701794810    1.62688883890369    1.90223060418538
H           1.13193980364884    2.22566788577488    2.34858324831107
H          -0.46275242958417    1.59776825542244   -1.40451245598728
O          -0.96835625802453    1.23405294553276   -2.16769766486491
H          -1.20137318348292    1.98204602926760   -2.71980807371457
O          -0.61034265267813   -2.68251339273736   -1.06986596057524
H          -1.34711912615956   -2.06103513919828   -0.85439914984837
H           0.21024133949770   -2.52619410863467    0.11504412565758
O          -0.52822786907884    2.84098424217460    2.39442395007722
H          -0.99447316568945    2.01317612222168    2.55127438891770
H          -0.46828931298253    2.92003178624711    1.42952282092657
O          -2.05685278242349   -0.57606822434213   -0.35158496479921
H          -1.92004731515265    0.03398173834700   -1.09208110122938
H          -1.49376305918639   -0.24030701946596    0.36668972721525
O           0.83182493462441   -0.86995478710172   -2.35071595713768
H          -0.06599397463723   -2.17959280338632   -1.72575300410070
H           0.17872221319226   -0.18520605984714   -2.56327234925041
H           1.34147748030643   -0.50187979088013   -1.60981309832389
N           0.82624417659978   -2.14897567205166    0.96804131128967
H           1.58341734977949   -1.56946868830523    0.55885823322281
H           1.16427290672246   -2.87348934114493    1.59092098936728
H           0.25847897865950   -1.41736651688989    1.44992998884055
