    26
        -50.44964316  Gyration_radius:  2.49677667683 Dipole_moment: 4.513
 S          -0.48753164954886   -0.94969513881341   -1.83145686593093
O           0.27363996702971   -1.89142357955375   -1.05763502735458
O          -0.01670609515320    0.43174822674271   -1.68060171880060
O          -1.92589185664356   -1.02124217151876   -1.61686575030689
O          -0.25557644002307   -1.31392438460919   -3.35207112008983
H          -0.94549932018912   -0.82303916274225   -3.78608481971501
H          -2.43309075969890   -0.58598639055868   -0.21028120321660
O          -2.65996690010764   -0.17338968880693    0.67504573348487
H          -3.61717265371336   -0.12902115251054    0.71211010824942
O           1.87856612956612    0.16692321610657    1.93642833628481
H           2.29607495836505    0.03388375458256    1.04525344997045
H           1.16630207892504   -0.50227322808307    1.96907596041985
O          -0.26599113535315   -1.43298198841060    1.55575814129913
H          -1.18081725620012   -1.13486232151282    1.51133865067702
H          -0.04088629507332   -1.74991165505876    0.66309929613551
O           0.52946562103261    2.28382137624117    1.82135942110124
H           1.15007064899308    1.44795222797134    1.86564867554322
H           0.11982206082882    2.35574587259200    2.68566096484995
O          -1.13683869247789    1.81737874614776    0.05379672310795
H          -0.63832208616818    1.30674369966960   -0.70861901674407
H          -1.78346671324142    1.13677438857642    0.41774648088368
H          -0.39336554980465    2.04624637861497    0.82542260418692
N           2.60883814301549   -0.26751177372679   -0.60245817199253
H           2.33953246120416    0.53458103521100   -1.15962431643571
H           1.91464386277730   -0.98743836859148   -0.79370439342722
H           3.50416746165382   -0.59909791795216   -0.93834214217622
