    26
        -50.46613706  Gyration_radius:  2.44843835321 Dipole_moment: 4.633
 S          -0.90158511458254    0.47156837432362    1.57156053272997
O          -0.73028558009056    1.89832951867379    1.60825807228218
O           0.37384372515568   -0.22595820085299    1.35173955089650
O          -1.86636897607784    0.03578261807581    0.55705353139828
O          -1.43059067270552    0.01069208375379    2.96182273092216
H          -1.58850144903616   -0.93883094897957    2.82081631535778
H          -1.40117483267169   -0.08584978590422   -0.96429516651036
O          -1.09383573040027   -0.26593365489139   -1.89145077537243
H          -1.87349398239861   -0.18941508706154   -2.44329351562148
O           0.34706340104149   -2.21792844153837   -0.42289953840343
H           0.24543828932219   -1.59753851357226    0.32913234010110
H          -0.20610334661664   -1.84533344980317   -1.12352809299556
O          -1.83247171601147   -2.32710802602811    1.72611691694077
H          -1.14428600895246   -2.84089166814601    1.29070030541548
H          -2.05883047790765   -1.60135490829733    1.11541324569702
O           0.84111614888000    2.92521430164812   -0.21574482902014
H           0.60809548897903    3.85461001053491   -0.23142281676148
H           0.28010871801784    2.52744219471489    0.49107420792845
O           1.14373770495929    1.22994780195196   -2.23503707387056
H           1.00756933409714    1.98369914504094   -1.61924328593962
H           1.91724832516394    0.34370084970020   -1.29236630566272
H           0.29103798937458    0.75112774702653   -2.26054133749333
N           2.24353805686217   -0.31305924369718   -0.48547027806556
H           1.67648923660128   -0.04245153767798    0.35821809326363
H           3.23974214878628   -0.26494931258067   -0.30653620901618
H           1.91249932062190   -1.27551188696527   -0.69007661799943
