    26
        -50.45082204  Gyration_radius:  2.58245961168 Dipole_moment: 7.360
 S           0.17958120251788   -1.08896023038301   -0.06946210768608
O           1.51459240539111   -0.97739422945249   -0.56329028981432
O          -0.86232831843382   -0.73884476308785   -1.00310306666192
O           0.01898475162240   -0.17780054721810    1.18698374078584
O          -0.07541127887241   -2.47275886178012    0.50285002866221
H          -1.10564216699005   -2.59623966277827    0.47481834529180
H           0.32816202842199    0.76395052765809    0.95467830987078
O           0.71436337813371    2.15104875215141    0.44495584361423
H           0.18136006948132    2.87090579641110    0.78822464545622
O           3.31764508086373    1.13872612687163   -0.19462970018419
H           2.92409714697832    0.25661806781027   -0.14954696313280
H           2.65570051883265    1.73229413036428    0.17703432123451
O           2.37519062264197    0.68618419681957   -2.73636727649937
H           2.18794835961772   -0.20881214783165   -2.43167616615108
H           2.94809072329102    1.05681086952699   -2.04004112791407
O          -2.56617694956152   -2.39753617863246    0.30530847901476
H          -2.78137615915179   -1.83521631104688    1.09770819306984
H          -2.46749005470546   -1.78933461082713   -0.44069916528344
O           0.02916577911720    1.64851050573628   -1.95138007363358
H           0.87199653585312    1.40420790828263   -2.40892039485503
H          -0.43535008147683    0.80801476122979   -1.80548836285906
H           0.46334394511495    2.05136444955496   -0.54147435206642
N          -2.67792825414759   -0.74022225427356    2.40391870541585
H          -1.72394390899037   -0.41953255704700    2.26660569486423
H          -2.72859103253615   -1.19437511149841    3.30690597033273
H          -3.28598433302842    0.06839135350634    2.42608676905847
