    26
        -50.46819551  Gyration_radius:  2.42365641227 Dipole_moment: 4.182
 S           0.66876666891614   -0.25286927358944    1.84187233110326
O           1.46780987842612    0.54462345120340    0.91192143998586
O           0.94818344149510   -1.66753007248682    1.73968297054230
O          -0.74241480618668    0.05297990510344    1.72309686358398
O           1.13279683229877    0.19616048831083    3.28574050210162
H           0.86621406481874   -0.55530807200544    3.80370598018981
H          -1.35082625181078   -0.53508349561848    0.27296270923741
O          -1.75128293084437   -0.77570939283583   -0.59186127803811
H          -2.56782829568875   -0.25958353942537   -0.60275710560573
O           0.10654419604551    2.45853105509971   -0.32724778099982
H           0.54193349560190    3.29186432368033   -0.14346166802228
H           0.57057776221708    1.77897457382742    0.21011084510280
O           0.19834556479705   -2.79222284923855   -0.53866859701844
H          -0.68348844194550   -2.41534652588167   -0.66981586432269
H           0.43650356624280   -2.58342714216643    0.38990601428948
O          -2.57714587772595    1.72955938184533    0.38099553388750
H          -2.19911747744475    1.25585871912724    1.13193043196955
H          -1.82683957083088    2.20443120569293    0.00125694801829
O          -0.27049356662681    0.65074517458915   -2.34999635856030
H          -0.93652677377968    0.11612058352277   -1.86498989043841
H          -0.19181000214317    1.46855454686967   -1.82958719302134
H           0.98033288993486   -0.19017251100629   -1.94105604230195
N           1.66779175634647   -0.78834655197937   -1.37312731236722
H           2.55395065601784   -0.92681588458811   -1.84464493456915
H           1.17283102818224   -1.71076921625176   -1.15963005251168
H           1.78519217361748   -0.29521887180925   -0.45633848223095
