    26
        -50.46819456  Gyration_radius:  2.42358344757 Dipole_moment: 4.158
 S           1.00870607825848   -1.53531007027351    0.72682729668280
O           1.58631342748984   -1.97749566425628   -0.52234886489825
O          -0.45244722368495   -1.59834672928288    0.72165473665745
O           1.48086780396759   -0.22734601394436    1.13387593726217
O           1.46847300473672   -2.57030353167659    1.83091668653431
H           2.37024177525561   -2.72465062554710    1.57178573781149
H           1.16446280816771    0.90595476976825   -0.06427336151786
O           0.93410248693416    1.63451473354068   -0.68255176357178
H           1.05405108343810    2.42447644213965   -0.13947022051119
O           0.60008133449444    2.30420212469280    2.02661774915494
H          -0.29549386760038    1.94619356344226    2.07689553848652
H           1.16461809512063    1.52186048806712    2.00676650719561
O          -1.63748488759669    0.52394659429061    1.79014509334372
H          -2.20203735744700    0.21627815292963    2.50036719865337
H          -1.14315681642341   -0.26229247427020    1.46856080635099
O          -1.76795068267108    1.52394152174057   -0.75648076689063
H          -1.92216355704076    1.34651760208462    0.18720200295144
H          -0.81278757081548    1.74635710666615   -0.80977934507587
O           1.09992706349191   -0.40728133958675   -2.59935662737020
H          -0.40555067595562   -0.72414118954431   -2.22824520275348
H           1.25253634178101    0.47301519558648   -2.22701972135109
H           1.47174372131636   -1.03614164587289   -1.94443649003816
N          -1.31124930096501   -0.86789913888540   -1.68004896304071
H          -1.66774633098966    0.10725260412889   -1.40637912950686
H          -1.04375404691411   -1.33624247562609   -0.78200801070263
H          -1.99430273633187   -1.40705999033087   -2.19921682381407
