    26
        -50.44835615  Gyration_radius:  2.64726871916 Dipole_moment: 5.185
 S           1.24544708675204   -0.12157031317248   -0.85314714554311
O           0.96148597405697    1.24456911230227   -1.21433279020519
O           0.24141636088333   -1.07781272218818   -1.19161398763383
O           1.54332772881367   -0.17508687050028    0.66652154632836
O           2.59260792139883   -0.54385945569118   -1.44513258776048
H           3.20113419802311    0.27215606023005   -1.30004136573503
H           0.71164329809973    0.02546029639675    1.22245135807467
O          -0.51697182359039    0.34862382545151    2.05605131134847
H          -0.30387961203914    0.26243776313058    2.98717056044332
O          -0.90375587759843   -3.16466818117293    0.04299577605143
H          -1.48783414968966   -3.54278900946974   -0.61755951015689
H          -0.41226706464593   -2.45847294050446   -0.41752423758090
O          -3.38983468375671   -0.06763716627240   -0.50110311817307
H          -2.68927502970596    0.62195127329960   -0.52625282366956
H          -4.21911906263782    0.40253028883148   -0.40332614491427
O          -1.48897172423275    1.80478709048356   -0.16861322306372
H          -1.23563503509414    1.56785131987380    0.73260654185710
H          -0.68316793043012    1.69453757735100   -0.69891309536005
O          -2.27360788995014   -1.40849098751750    1.54644746930300
H          -1.23114791218375   -0.37181092744511    1.86733980932472
H          -2.78568259153224   -0.99385594572420    0.81789847689262
H          -1.78883875745866   -2.14828586316783    1.12051821140865
N           3.71871907264365    1.70724961215388   -0.98459809462268
H           4.08055277521000    1.84205451808535   -0.05025237568004
H           2.78618393557667    2.10840581199789   -1.04263309073737
H           4.32747079310233    2.17172582323820   -1.64495747020443
