    26
        -50.44594794  Gyration_radius:  2.6492494553 Dipole_moment: 9.145
 S           0.36630336747208    0.84161308162887   -0.51896604090350
O          -0.30702286951256    1.83943732325172    0.25458713199767
O          -0.31844659130219    0.39397525955870   -1.69318879466799
O           0.66358491099038   -0.39220289518210    0.39356218692452
O           1.77568250858076    1.32896694779255   -0.84599352026398
H           2.23583216323762    0.63444500111080   -1.42708551424200
H          -0.23439328878222   -0.77226096604509    0.68458998105693
O          -1.63264297730435   -1.27264165925704    1.02582072044703
H          -1.73789076869999   -2.22071496149349    0.92593355894619
O           3.07552400439678   -0.45087962442610   -2.11578842844625
H           3.18611995408267   -1.10143533844661   -1.36702875648922
H           3.94535110029830   -0.09867349144791   -2.31764303017191
O          -3.11317581994866    2.24966924314049    0.28413370985206
H          -2.22110131304954    2.53149381209855    0.04669187317093
H          -3.03667815140226    1.99257443246989    1.21923567886923
O          -1.84216335248724    1.18418767130413    2.50233428510744
H          -1.88381787542595    0.23899042953778    2.32076808862503
H          -1.14597827562338    1.52985298203209    1.92574249494021
O          -2.84176535477199   -0.12624674947092   -0.88912375999929
H          -2.20416054579266   -0.84710853568897    0.28770264898461
H          -3.13077519655686    0.75020458543949   -0.53641942681307
H          -2.05249656511623    0.05931378400990   -1.42714307997495
N           3.18131443097994   -1.96630933413945    0.07654808147508
H           2.33215624397968   -1.54216137964474    0.44045989545741
H           3.91808460354334   -1.82159162636144    0.75548148588749
H           3.02255567827733   -2.96249797176470   -0.00521147985228
