    26
        -50.45803609  Gyration_radius:  2.4505951557 Dipole_moment: 4.133
 S          -0.04589810565039   -0.42082877177826    0.69521592943165
O           1.05140669718828   -1.37845856903197    0.63192022274971
O          -1.34434743612126   -1.11206589704106    0.73665349903059
O           0.04206119179593    0.40768724061803    1.98037614323535
O           0.01497476456472    0.49967508989518   -0.44002008535701
O           0.62528850389675   -1.83633232621607   -1.92573545863064
H           0.87508721761477   -1.81840236283960   -0.97231030056213
H           0.90712284253935   -0.98230658228984   -2.26682348983028
O           3.48574613556081   -0.31649208261188    0.82201447887052
H           2.61794075050340   -0.76002187669045    0.71475901594957
H           4.00740037768900   -0.89931600517162    1.37620836273293
O          -3.05917784294220    0.93436983940735    0.66520115097782
H          -2.51023013715287    0.14443875702316    0.83710081532754
H          -2.84463815045633    1.55933958655210    1.35869270892219
O          -2.14420284119164    0.73305990020196   -1.85843845710366
H          -2.76494018612235    0.96224205446464   -1.13863175580039
H          -1.25837545259432    0.82542562525167   -1.42263813327103
O          -1.90318405875305   -1.72341397696606   -1.62175467207833
H          -0.93098348088458   -1.88479877204913   -1.90989391694989
H          -1.79895673979289   -1.63557687057143   -0.59819124583439
H          -2.12076507967653   -0.68823856338721   -1.87684775991576
N           1.88581651277800    1.96237626981160    1.24707008303705
H           2.68158882490493    1.32918025058198    1.14641753365689
H           0.81697265408128    1.10998111921865    1.78335132300807
H           2.17558011951435    2.81010543657155    1.71552790426607
H           1.53871290871060    2.17837147705323    0.32077608414432
