    26
        -50.45894427  Gyration_radius:  2.43176637393 Dipole_moment: 4.926
 S           1.61208891743447    0.07294991807899    0.90635291048354
O           1.52662832795495   -0.15614418261397    2.32399445229192
O           0.49855567303702    0.84553746600939    0.37496018015772
O           1.55247797198741   -1.32575583359942    0.15872608575273
O           2.88480726770889    0.63074754728935    0.44005569185589
H           2.49910156806542    0.64972896284449   -0.92064261953330
H           0.61152057120765   -1.57826039496181    0.01476579686562
O          -0.92714518800587   -1.95429535196219   -0.46081833757510
H          -1.17023243203751   -2.87681567488513   -0.37356949404476
O          -0.98891946425039    0.09644740892504    3.08082587904066
H          -0.05387506782524    0.08424377354206    2.77644591539312
H          -0.99553961300097   -0.38065348152218    3.91238146817087
O          -0.40822017277297    0.04115935720029   -2.29046489328623
H          -0.96626585279804    0.71589554990641   -1.87130916502677
H          -0.58913275095615   -0.76679314928314   -1.77947430627312
O          -1.79684688039733    1.68139470280524   -0.48497993485819
H          -1.96553990792093    2.58083745175537   -0.20221998622369
H          -0.94397758939257    1.42158746735375   -0.06561769527087
O          -2.52736317263768   -0.55581224008609    0.98011859414334
H          -2.53638435248813    0.26430287218741    0.45943377054474
H          -1.57443691520246   -1.43206727198508    0.11883457123881
H          -2.02563764494775   -0.33087697724937    1.79412715909533
N           2.16073283356884    0.59140641970861   -1.98456334287636
H           1.10308769944723    0.40118025720373   -2.01744490271676
H           2.64884005255578   -0.18221660627262   -2.42715500528169
H           2.37167613169630    1.46227200940759   -2.46276278221545
