    26
        -50.45803588  Gyration_radius:  2.4510110928 Dipole_moment: 4.138
 S          -0.52303326688336   -0.62292527756234    0.03044963044566
O          -0.49536237615682   -1.31612296807438   -1.26736643220521
O           0.53490561848232    0.38498422100264    0.10151710809834
O          -1.82481497701530   -0.01023636619059    0.26510180577903
O          -0.23443517661041   -1.68660536117609    1.09362699467228
O          -2.14845430497008    1.05910540419731    2.68173363253672
H          -3.03777915959484    0.84640116636680    2.96937174535228
H          -2.07600178031672    0.71196042518886    1.76761311817620
O           2.04624134670214   -2.12482862885459   -1.41380639141496
H           1.07852681121368   -1.99394505128468   -1.37733947746259
H           2.27455740070975   -2.61918149344093   -0.62576776984393
O           2.14740221662090    0.51568536468913   -1.92649687026804
H           1.68363448156035    0.58743418811226   -1.05303180985107
H           2.43243942514974   -0.41940105385138   -1.94443330985806
O          -1.28788145899458    1.98046027307102   -1.37163910550813
H          -0.61100087587330    2.41368162252308   -0.84313062927834
H          -1.65865499243607    1.28501450653147   -0.77943363494899
O          -0.08469328166831    0.43519095100993   -3.00314726275187
H          -0.34617773640709   -0.39453376090262   -2.44679865370801
H          -0.59862506442917    1.17682861492071   -2.51305543180596
H           0.95438368344695    0.54413714545714   -2.69879114449968
N           0.39260474546709   -0.12094592873528    2.96673873547478
H           0.99729917798139    0.50135785922967    2.44497777990961
H           0.83123420964025   -0.37983804691560    3.84002650277914
H          -0.48502597419045    0.37001459847024    3.14822621866996
H           0.03871131857023   -1.12369242378064    1.95485464151099
