    26
        -50.46215565  Gyration_radius:  2.39729694341 Dipole_moment: 4.885
 S          -0.68484518631928   -0.18266698162479    1.46013168432021
O          -2.11719479226759   -0.29618067039593    1.35930536641992
O          -0.21846697824425    1.10539428694243    0.88726627516294
O           0.01670716137360   -1.27625213244404    0.78828787028979
O          -0.27137908131003   -0.17993096810814    2.94540994441634
H           0.73056131823542   -0.25408853753361    2.89294138139643
H          -0.42897502101150   -1.57873747802881   -0.69317151178778
O          -0.71717586460494   -1.70387816311998   -1.64005617736996
H          -0.60765685355720   -2.63676756098998   -1.82882407807823
O           2.08324835877854    1.10692757361956   -0.35702143075179
H           2.32792761854628    2.03371489383083   -0.39406526130789
H           1.26477676623639    1.06472217641950    0.19370226713397
O          -2.91754714970503   -0.16868003689243   -1.12966766429680
H          -2.83848028850661   -0.26046318580098   -0.14973777095541
H          -2.34263511578156   -0.86738454202343   -1.49210372601820
O          -1.32148363819086    1.74436087728778   -1.27531362318177
H          -2.10890552618980    1.03071331840802   -1.30247544328150
H          -0.92676770134845    1.61186939148901   -0.32968041205999
O           0.53159198575036    0.55475804238280   -2.48989053846677
H           1.25254108217116    0.66757107457856   -1.83089467063663
H           0.19276232429822   -0.35242231854599   -2.36675697028572
H          -0.57106335313609    1.34848746857272   -1.90077233176612
N           2.22661635618129   -0.53762139903778    2.32742480844687
H           2.74030780086528    0.22818288327416    1.90982697425060
H           1.82915969171351   -1.08785142004034    1.56973040781644
H           2.87637611603003   -1.11377657221218    2.84640466059765
