    26
        -50.45402691  Gyration_radius:  2.47070977773 Dipole_moment: 3.619
 S           1.27026507239268    0.50816623558027   -0.24364983915452
O           1.54064965028843    1.33592193439774    0.89636907089558
O           0.24791733366245    1.02112413615301   -1.11852542339111
O           0.87944779760958   -0.91123627478279    0.21604029690932
O           2.56575228347700    0.25717938629253   -1.00274339896607
H           2.38564683926355   -0.54339860207087   -1.62338744164543
H          -0.14227406033347   -1.04193418387736    0.30090830964347
O          -1.59861097413760   -1.26137013283554    0.47827862317800
H          -1.70489612327974   -1.97476080107936    1.11236788852071
O           0.33889407149833    0.49468644490660    3.14400596457838
H           0.85493119397378    0.76040002183643    2.35880561917713
H           0.70203229034628    0.98491192117321    3.88352549213936
O           1.93169923956525   -1.79367034799917   -2.33240524688700
H           0.94618641113027   -1.64914145644659   -2.50155447349069
H           1.98773373980649   -2.47810974324925   -1.66110877202227
O          -0.89208153721851    2.81813742157649    0.53613995666083
H          -0.62498942021729    2.29020812072832   -0.23424627008903
H          -0.07287525909275    2.97371116004973    1.01491606674669
O          -2.06234593025357    0.81167691283479    1.90592721533957
H          -1.83655898474293    1.62247669651019    1.40267054568781
H          -1.88088414657001   -0.42156088322147    0.97754795592552
H          -1.32127041502045    0.68960568228168    2.52896542961998
N          -0.63638306784998   -1.25600942836412   -2.53587923569589
H          -0.51702437614772   -0.30063626060900   -2.20164473198808
H          -1.24844320337687   -1.71754330532812   -1.87310710061282
H          -1.11251842475391   -1.21883468447662   -3.42821652109027
