    26
        -50.46185105  Gyration_radius:  2.40103027052 Dipole_moment: 4.308
 S           0.97673099708038    1.51826052650762    0.23797186471428
O           1.85427509088130    0.43918468286166    0.67161375466320
O          -0.10510191175681    1.76298008711214    1.15938881112913
O           0.51945598023047    1.29343532476832   -1.13098114581782
O           1.85359098854261    2.82883617833633    0.19474114457461
H           2.50507115376185    2.60103867808211   -0.45914028244495
H           0.09716603075432   -0.30277205393199   -1.38367707140041
O          -0.21097375901991   -1.23639367458765   -1.39167459748507
H           0.58836768726189   -1.76485774364049   -1.12039030236618
O           0.19514785748557   -0.71757981531840    2.33516193528513
H          -0.15269316955194    0.04312717091281    2.81033423854882
H           0.90040631332625   -0.33993540231964    1.75906048069731
O          -2.00456125024553    1.40533760332729   -2.04187852844864
H          -2.03272224538792    0.61542146423329   -2.58663397531916
H          -1.06559608803604    1.53114143204600   -1.80438925296627
O          -2.55294575170178    1.01202605745155    0.52719817631478
H          -2.58143174765999    1.22836736855924   -0.43395904175674
H          -1.73889308491952    1.45564313059620    0.85359161243987
O          -1.64502802188303   -1.30037064893458    0.64942226213880
H          -0.94127254877293   -1.18777332810358    1.38099878383571
H          -2.15207758156440   -0.35336997951539    0.61471599564772
H          -1.09294748906283   -1.34939758745426   -0.25990074098152
N           1.97642460763024   -2.28574170119873   -0.30840616921977
H           2.20016666796299   -1.36837491027583    0.07428615888964
H           2.78325681021308   -2.61727202588042   -0.82100835499489
H           1.82618448443211   -2.91096085361576    0.47355423432027
