    26
        -50.45402686  Gyration_radius:  2.47083295646 Dipole_moment: 3.621
 S          -0.10144484518919    1.00830769085444   -0.95095769991258
O          -1.14802644125495    0.56187368007965   -1.82458791078759
O           1.10980404299542    0.23396882259356   -1.03369727569925
O          -0.60008522773436    1.01581439310320    0.50861154676054
O           0.17300223248401    2.48372733312913   -1.20646110438065
H           0.70790027442944    2.82209484065381   -0.39539542743621
H          -0.37705020243202    0.14419221130400    1.01677444739325
O          -0.11614761374675   -1.10655298311675    1.77163485665941
H          -0.77316838284874   -1.16167452528588    2.46987052029127
O           1.35223707210757    3.11250881042430    0.93597773803853
H           1.83788679294360    2.26012814763399    1.17749880494668
H           0.61351203568592    3.17860921069501    1.54598541112523
O           0.14884641416053   -1.95968697991859   -2.27162241813183
H           0.72023447376592   -1.27809183426681   -1.88118410106884
H          -0.53730604209520   -1.46390381254117   -2.72761189156059
O          -2.99773623883407   -0.95034089715593   -0.60125165332978
H          -2.38563460485563   -0.32797213783710   -1.03872806234548
H          -3.74093726831068   -1.06027685073280   -1.19675467955171
O          -1.03872303764486   -2.73204702222506    0.02282425519023
H          -0.38602796691026   -1.82032261903188    1.09949499374879
H          -1.87318218718436   -2.25595028307534   -0.14786692817134
H          -0.52863238095066   -2.65205820715140   -0.81091850262224
N           2.41645833044611    0.75393313743108    1.41561809198632
H           2.19175550896328    0.40472700745658    0.48488639521449
H           1.92297339687480    0.15995713598009    2.07179894451351
H           3.40949185512762    0.62903571099728    1.56606165914289
