    26
        -50.45894420  Gyration_radius:  2.43161130797 Dipole_moment: 4.926
 S           1.13236404108516    0.52315321677692   -1.36643984237226
O           1.83250716090206    1.75910958277538   -1.13895404614676
O          -0.23630279250465    0.53203223930430   -0.87052510160854
O           1.86598831339345   -0.63408077568169   -0.56553874459345
O           1.16874600022345    0.03004753962207   -2.74623594025174
H           0.40981480326572   -1.12973581442899   -2.46354939145416
H           1.52067964644096   -0.66055608152068    0.35626730481498
O           0.82989968109274   -0.90917812349779    1.83861136309714
H           1.44125275587168   -1.09975020875917    2.55103281399819
O           0.65478937377248    3.05928496141994    0.83306232260728
H           1.02065836233370    2.58294834983534    0.05439540293534
H           1.34698472638395    3.65864986043207    1.11703043776042
O          -1.15901699328460   -1.99947601047445    0.27142346582462
H          -0.43120114279578   -1.77387539023493    0.87630728419431
H          -1.78870575215821   -1.26810271859058    0.37592438038276
O          -2.38938663608696    0.50602302965395    0.56865271365112
H          -3.04462983111324    1.11287812015942    0.22256299612840
H          -1.58801673386558    0.62479402639311    0.00795400804328
O          -0.47018223695289    1.22324406124460    2.43629071588787
H           0.33616859799980   -0.06461998502666    2.10382014626651
H          -0.06052576038227    1.94402415016833    1.90946336444510
H          -1.30827084336048    1.03111519704086    1.98407556173697
N          -0.14677030063451   -2.05419000621913   -2.17150443320862
H           0.51147811952057   -2.82830912368898   -2.16530843484511
H          -0.89476689728825   -2.23151762197646   -2.83532920600312
H          -0.55355565185976   -1.93391248473907   -1.18348914129725
