    26
        -50.45514391  Gyration_radius:  2.42749836946 Dipole_moment: 4.707
 S           0.65779859639720   -0.38953351182859    1.42853764456894
O           1.25361947284513    0.18151854976957    0.23561916657760
O           1.01332857196635   -1.74898517613018    1.67467744395434
O          -0.88621917506526   -0.26883492338877    1.28878809523430
O           0.94773678679423    0.49773475522001    2.61547734525426
H           0.90610672844606    1.47646473919146    2.23099896163846
H          -1.20760827810240   -0.84657605875503    0.52512324589384
O          -1.57531780947416   -1.75915737225092   -0.67878783751021
H          -2.30998770380465   -2.34074263041726   -0.47376571879847
O           1.98890359823921   -1.23382615645213   -1.98733087579171
H           1.46548107896534   -0.75142647811059   -2.63351786547043
H           1.97109763736393   -0.69620677919480   -1.17898302854359
O          -0.54622428760041    0.68335423348698   -1.74763284548195
H           0.15908731361433    0.56703000013646   -1.08947301069660
H          -1.08444840736436   -0.11435196923793   -1.69080748935626
O           0.84913400236280    2.69077194642204    1.44499600565613
H           1.44192780756369    2.46656872797312    0.72067110096256
H          -0.08156808542298    2.71506121783854    1.03468135132600
O           0.59408052069971   -3.10962711209890   -0.63976279144692
H          -0.75425135145651   -2.35564696928533   -0.74132603297437
H           1.20203346492340   -2.63331423606353   -1.24325632909829
H           0.87892172578230   -2.86687366279876    0.25801019168818
N          -1.49540106015456    2.53494865937474    0.28702276166995
H          -2.07119844464475    3.34624251062130    0.10446324774281
H          -2.02229923757372    1.88367089575085    0.85573635842249
H          -1.29473343533611    2.07173680022436   -0.60015909538912
