    26
        -50.45402686  Gyration_radius:  2.47070862162 Dipole_moment: 3.622
 S           0.05449125013010    1.06574992340120   -0.89036875676263
O           1.31001373395760    0.75859694744877   -0.25556162459994
O          -0.69636070143645    2.10185229346847   -0.24183477414661
O          -0.79341684739030   -0.21906460222630   -0.98592666140088
O           0.25557600012933    1.43032860014595   -2.35466266964360
H           0.53679307570856    0.56313534779209   -2.83153589521368
H          -0.63095657758898   -0.87031009055839   -0.19994997789415
O          -0.46175682937995   -1.81512750497828    0.93098587585799
H          -1.26629261628441   -2.33608919089953    0.99094048261403
O           0.88483856371440    1.90631453308841    2.14635323927301
H           0.29490132476648    2.57172918895646    1.78063249370449
H           1.27843032399298    1.47858575517973    1.36811666267743
O           0.79656487537940   -0.83738310274990   -3.32474544273602
H          -0.07511819766014   -1.23849067176553   -3.36364855186726
H           1.27898740680775   -1.29239800803498   -2.56258787230670
O          -2.65594745382244    1.17732478082012    1.34247028081940
H          -3.21549311905441    1.91408364178624    1.59397630345667
H          -2.00968684021032    1.53019744772038    0.70122071284730
O          -0.77033857672823   -0.11383399725329    2.81806119804089
H          -0.49104949745321   -1.19252499202471    1.73457467267297
H          -0.07583897966578    0.57631522654544    2.76347518174922
H          -1.57287606028102    0.31020110676172    2.45977371249170
N           1.90882002771674   -1.84748243305031   -1.16404396242121
H           1.95591164190998   -0.94100093368589   -0.70057983887348
H           2.83945493578667   -2.24527363438841   -1.16980350320475
H           1.32034915695736   -2.43543562150276   -0.58533127515970
