    26
        -50.46215557  Gyration_radius:  2.39727232217 Dipole_moment: 4.885
 S           0.72985201810680    0.66167501841035   -1.28962912917977
O           0.25817272042730    1.40842855927611   -0.09596587339609
O          -0.18766350059429    0.82497963324042   -2.38793004336813
O           0.92343979119738   -0.74024002999779   -0.91973925166961
O           2.10001573942105    1.25777514571874   -1.66920950144643
H           2.68784492740413    0.95327650236711   -0.91153158445258
H          -0.38776664405085   -1.58684437750053   -0.69957958725409
O          -1.24510735619712   -2.06836922436189   -0.53089761940696
H          -1.08679091264411   -2.98241373506604   -0.77041758951157
O           0.71972301050230    0.34349226347014    2.24904807563014
H           0.64757482678476    0.73600525598900    1.34590059537462
H           0.60702055830538    1.07235515285219    2.86245038700889
O          -2.58189173678119   -0.03743177304932   -1.77467150479825
H          -2.33075630074569   -0.92980219266335   -1.47356656573769
H          -1.77226316312350    0.31712257211851   -2.21480585738004
O          -2.20160391605889    1.20028350778772    0.35876401132383
H          -1.21590439346505    1.43662513962231    0.15775583845081
H          -2.52163985464549    0.74216812703571   -0.54561617772383
O          -1.69151593380786   -0.78165242027663    1.82052392494586
H          -2.11729754211828    0.41040710828753    1.05129286989308
H          -1.57742794298766   -1.43375166475880    1.10312009037839
H          -0.78513074463143   -0.53600525652029    2.11177831322943
N           3.24195292104191    0.12726069285616    0.37201982282925
H           2.56752377110462   -0.61002913982267    0.18113217855453
H           3.04717259294929    0.48445705932093    1.29897305032749
H           4.17246705460313   -0.26977192432529    0.37080113737712
