    26
        -50.46215558  Gyration_radius:  2.39734787794 Dipole_moment: 4.881
 S           0.25595411971185   -0.06826715406797   -1.60046810222299
O           0.40043342604417    1.14821110758433   -0.76133370194526
O          -0.98433784794598   -0.03794889963214   -2.33224399720358
O           0.37648500587684   -1.24697357663047   -0.74271533054964
O           1.43820930225342   -0.06415470009094   -2.59006291186806
H           2.22589567075600   -0.24118478745250   -1.98990144927875
H          -0.85309113541614   -1.54684571270163    0.19745084840553
O          -1.63659894650374   -1.67009020923321    0.80253036459491
H          -1.71658827501299   -2.61445484462515    0.94284878894279
O           1.58010922363995    0.87598614663532    1.55856605182769
H           1.82170504117818    1.77132413849412    1.80390610693426
H           1.21958595767561    0.93445968831249    0.64126398375908
O          -3.04722443209692    0.09937622995289   -0.72688762047741
H          -2.82989361134126   -0.66557947402470   -0.16334608066043
H          -2.43170835075029    0.02860157144961   -1.49565745945869
O          -1.68950901421613    1.83171977019222    0.44966702440751
H          -2.39959681640480    1.20295719269316   -0.03031327631769
H          -0.83753209534659    1.68766537933217   -0.11697964206609
O          -0.94165970889769    0.42083003355502    2.39239089863783
H          -1.45661698771442    1.34175867602304    1.35339380949953
H          -1.21108599785443   -0.44234481512890    2.02449662394040
H           0.03168590291339    0.47866359357144    2.26600398043926
N           3.11343788440631   -0.69193126639831   -0.70598082101879
H           3.90103333205734   -1.31748312108551   -0.81503750261766
H           2.31939946829908   -1.21912337000188   -0.35028772851339
H           3.35150887469204    0.00482840328799   -0.01130285719416
