    26
        -50.45831362  Gyration_radius:  2.47999911859 Dipole_moment: 5.157
 S           0.40211143865635   -1.63872206216836   -0.92735079057652
O          -0.48948624342161   -2.14653725946525    0.10791085780013
O           1.75671116435717   -1.43918878583817   -0.50373601467879
O          -0.20103883938096   -0.45652824233079   -1.56113592001273
O           0.43807056922627   -2.74268668814122   -2.06255331411104
H          -0.47671628147665   -2.89113592128045   -2.28108075253317
H          -1.15568497444640    0.48290579999369   -0.82284960731173
O          -1.73096064355503    1.04746457572415   -0.20545101665948
H          -2.23626250563519    0.33809641297269    0.40014070108300
O           0.74473432602063   -0.60649751009719    1.91426083672591
H           0.25037536080364   -1.24639392789654    1.37030234824629
H           1.64890944581736   -0.68868774444453    1.59483485103386
O           1.96890450881265    2.67391163172257   -0.12844338072586
H           2.10496702089033    1.97747440175195   -0.81827598527298
H           1.96410511652733    3.51228474645335   -0.59145264076402
O           2.14620750282221    0.76421461728421   -1.96393076921533
H           2.47274271663184   -0.00665594180466   -1.47480272178796
H           1.21446128763802    0.53383859902534   -2.10721410456586
O          -0.03858190845145    1.88204424113670    1.38803488226240
H           0.72328254958913    2.25728719650635    0.87985474998299
H          -1.01700699251661    1.51037812476344    0.47987094310057
H           0.27872576266378    1.01381849275344    1.73339506141800
N          -2.67305189740701   -0.80619783936651    1.25675477097735
H          -2.47840474568301   -0.64456205042849    2.23697836832136
H          -2.00680302856528   -1.50449463045946    0.91700900792753
H          -3.61031071006567   -1.17543023639848    1.16892964935357
