    26
        -50.46185103  Gyration_radius:  2.40109038391 Dipole_moment: 4.309
 S          -1.39577139458763   -0.83671080825538   -0.81649908409710
O          -1.16705513109164    0.24291022766628   -1.74468480017531
O          -1.92920085538073   -0.38023905373472    0.46012906063915
O          -0.21587214390923   -1.67352237346167   -0.61338913585346
O          -2.48991767453660   -1.77479127681268   -1.45778564949602
H          -2.54470752919077   -2.47242063267431   -0.81417861085326
H           0.79303557204585   -1.03760602569229    0.55631053874337
O           1.35279975755814   -0.52729206954515    1.18310026235154
H           0.77763546475194   -0.40339960377183    1.98672419215564
O           2.16604983643608   -1.45235343449628   -1.83457911485602
H           1.27837857150813   -1.68775391852501   -1.50212755027119
H           2.76002411949117   -1.55168573774520   -1.08699684946657
O          -1.18986656302236    2.12523291468902    0.27508522827950
H          -1.53748215681462    1.21505969519359    0.42554007767727
H          -1.44901109653908    2.32926132109095   -0.62864112735150
O           1.30017252539722    1.02360887520281   -2.25406128275764
H           0.34897096044044    0.77660225429813   -2.26856427238287
H           1.77779689466469    0.16169881388521   -2.27494157671804
O           1.33871650817095    1.73445514728008    0.12916082225872
H           0.36174651430461    2.00113039229390    0.26175855701320
H           1.43754168638801    0.79412188923266    0.61925521948283
H           1.41718341812908    1.50995379301453   -0.91892971341467
N          -0.54419738936483   -0.07786820220277    2.98810785411850
H          -1.24155820144435   -0.24204615126825    2.26369085122254
H          -0.64567738968100    0.88206898153471    3.29324839717607
H          -0.75973429373801   -0.67841501720529    3.77326772657150
