    26
        -50.46487308  Gyration_radius:  2.45914047311 Dipole_moment: 5.072
 S           1.14350313968409    0.08779650789051    0.50366219678221
O           0.41186157487720    1.33969066031354    0.17897808315739
O           1.64139343546246   -0.53564125775350   -0.70406426175715
O           2.12471363970233    0.30342016732205    1.53587749152936
O           0.06770283580960   -0.84486329495436    1.14153916280267
O          -1.27110595276927    1.01015332227956   -1.87529374779117
H          -0.66442852404345    1.30778795463346   -1.17146541077746
H          -0.67993764894934    0.75960121920290   -2.60488936493495
O           0.66005781791015    0.27511372428865    3.65125040275759
H           0.50192983481948   -0.66579762129729    3.76262213534872
H           1.34303685007806    0.32789366660007    2.92600353992483
O           0.26556022626858   -2.47306299515686   -2.05434360079740
H           0.90552293398192   -1.99907387951153   -1.49532140567616
H           0.31252169766324   -2.03084693746516   -2.90827635002619
O           0.97972528682521    0.15437532876191   -3.20132317169211
H           1.64325284786733    0.71700909669029   -3.60170051123156
H           1.30093250390948   -0.04574842398432   -2.29642628660128
O          -1.65305778598285   -1.28783195616730   -0.62897646579785
H          -1.13924413601571   -1.90889488595425   -1.19333162985295
H          -0.65125510598050   -1.06876597541530    0.42971011391194
H          -1.68307822351598   -0.44105442706657   -1.14407782874610
N          -1.14992104293192    1.42117347119072    2.16586829612971
H          -0.50028581042072    0.95820716134335    2.89269786876093
H          -1.46990893054153    2.33575140846692    2.46929287524967
H          -0.50558099568131    1.49266792940787    1.27289441714049
H          -1.93391046798312    0.81094003626702    1.94909345219547
