    26
        -50.45212629  Gyration_radius:  2.45400053353 Dipole_moment: 7.623
 S           1.70353538312931    0.30003105611790    0.58813960860396
O           2.00234356076919   -0.02687696162346    1.94963998829032
O           0.46835953241679    1.05574379106390    0.43266880069255
O           1.48393801904924   -1.04119400606703   -0.24001273942629
O           2.80690652640615    0.92961605761233   -0.15822665541845
H           2.42078399461652    0.76895213084015   -1.45286740634572
H           0.72293154765399   -1.52215470303555    0.18381114702894
O          -0.55470224080745   -2.15932847079720    0.91844252088998
H          -0.37416292359899   -3.01450994947143    1.31194656783172
O          -0.54120807818824    1.16988814034864   -1.87367807214168
H          -0.98672396094097    2.01525463578855   -1.95605668607228
H          -0.20351816114103    1.14283793646496   -0.91956323344802
O          -2.56424040934707    1.02425364031534    1.57359624424428
H          -3.35248838343635    0.75536180153645    2.04838812308895
H          -2.54680952097181    0.49017571153844    0.75111479103606
O          -2.36151408134543   -0.61798718253131   -0.58972233583721
H          -1.78573457665431   -0.11639401770189   -1.18300977136437
H          -1.79896955987423   -1.28125559815409   -0.16489408578386
O          -0.55898709442866   -0.39639540051344    2.76232833032933
H           0.36150821338248   -0.10615255310183    2.63415460915662
H          -1.13406452353713    0.30620697912158    2.39097759410910
H          -0.62163124088506   -1.50161508481543    1.69560525023158
N           1.97108180802561    0.52257029007965   -2.48072968244609
H           1.99994576203577   -0.49162010334840   -2.54801566152595
H           2.47641593944473    0.96217031569437   -3.24264314795352
H           0.96700444829542    0.83242154469617   -2.43139408777469
