    26
        -50.47319292  Gyration_radius:  2.45114041597 Dipole_moment: 1.787
 S          -0.35857097498696    1.45791827014062    0.42479832225226
O          -0.96962581029753    1.60557334915810   -0.87208045676113
O           1.09730386257895    1.39185571460705    0.34686402733434
O          -0.89564836200360    0.28388844502343    1.13769699607992
O          -0.68301713518410    2.70536322206577    1.30194772740690
H          -1.64130347231703    2.62503815705825    1.46648945003190
H          -0.93704378874120   -1.01656874548069    0.13623649799700
O          -0.94604924995721   -1.80747370522369   -0.45510010743481
H          -1.75544454975792   -2.28053529494696   -0.25577301545266
O           1.58838332311414   -0.68056266480653    1.96576041486777
H           0.66709248999390   -0.76834258871739    2.23009174792041
H           1.60360219109241    0.16427798377283    1.47814610241723
O          -3.04972355702170    1.63078133185647    1.82044396291865
H          -2.41831505382461    0.92535409478047    1.57731937350979
H          -3.25471663029606    1.51308168432778    2.75085974694818
O           1.77991540026575   -2.26576094635197   -0.18460007558180
H           1.86090332276235   -1.82613447992860    0.69305592688415
H           0.82548855678401   -2.39176305793655   -0.31031815473320
O          -0.46939285104051   -0.23978918495691   -2.69195150423799
H           1.05316410998774   -0.16728697639929   -2.26887045750054
H          -0.77622505135051   -0.98762100528648   -2.15422594255349
H          -0.77212943812639    0.54897682012724   -2.19092396169441
N           1.93380793296156   -0.11108472018654   -1.66599725439266
H           2.03106901579818   -1.04465222737572   -1.15136949423393
H           1.72564358107822    0.60667611576600   -0.92845806508158
H           2.76083213851629    0.12879040893500   -2.20004180690421
