    26
        -50.45060500  Gyration_radius:  2.45376704612 Dipole_moment: 6.060
 S           1.92050409763981    0.06449097073894    0.26338736289482
O           2.73229017826692    0.62828795222330    1.29570400643952
O           0.76721863364555    0.84501613258148   -0.10579590417705
O           1.43794529542009   -1.34995224979810    0.69517965967391
O           2.74549247361989   -0.22647022781479   -0.98307205032260
H           2.01638926163452   -0.36211580855574   -1.75437466105556
H           0.45976906913089   -1.37115978686744    0.91585725348030
O          -1.06944861580085   -1.49700792938246    1.26297828192422
H          -1.16931620750184   -2.04692749549651    2.04183027293893
O           0.71320869020538    1.83024237215476    2.64735471712717
H           1.48325445942011    1.37653558249969    2.26057599101442
H           0.79093495769039    2.74688092745465    2.37551104603680
O          -1.57306256783522   -1.41131098964288   -1.42308673482359
H          -2.25020994218981   -2.05639055607929   -1.63330441952982
H          -1.39449171928837   -1.49809618446303   -0.46892777623994
O          -1.75996502058240    1.40057847805267   -0.78627948428225
H          -0.80086384929315    1.38675095241808   -0.63463230232404
H          -1.95457890391855    0.53096996527122   -1.15791987509689
O          -1.72123165024295    0.86662197185357    1.88368715294840
H          -1.87450660818215    1.24212392298297    0.99126042245572
H          -1.35984586352154   -0.54733751809186    1.54308288753338
H          -0.88082824802358    1.25417520924492    2.20500430962823
N           0.89564129368716   -0.45731737442594   -2.70133180514254
H           0.08691471445660   -0.87831389927872   -2.24560665213777
H           1.10473111173885   -0.96704875350221   -3.54990282899999
H           0.65405495023012    0.49677434535526   -2.93717884960577
