    26
        -50.47319287  Gyration_radius:  2.45116343988 Dipole_moment: 1.787
 S          -1.16643679133055    0.65963761637101   -0.79921213649755
O          -1.73754304545272   -0.48233169963927   -0.09233139912652
O          -0.46762308186988    0.26763097386561   -1.99714663540680
O          -0.29426424504100    1.44287070729984    0.09571004603191
O          -2.37075119638103    1.57708621960749   -1.17161141467726
H          -1.94422384658698    2.39426191271771   -1.49107064583082
H           1.16823154027784    0.71127518246912    0.24345981977435
O           2.04306871465113    0.26620165121647    0.35218368813027
H           2.69840386892146    0.96547865097901    0.36643786490905
O          -0.67172878842638    3.60294106302732   -1.35763510353032
H          -0.29783889877083    2.91763162818493   -0.76944879598348
H          -0.87325661157701    4.36316082807099   -0.80727266047121
O           1.06403667140297   -1.62121739666716    2.13889081985803
H           1.64586641222195   -1.00257195830381    1.66837800347389
H           0.31490135495459   -1.06695408509666    2.45771275030418
O          -0.99701901303569    0.06639201880028    2.41917984212350
H          -0.62286472456683    0.92175034477086    2.18521251858201
H          -1.46750739771831   -0.20348847783319    1.60829677711413
O           1.52159196864572   -1.45138628128245   -1.76124391215560
H           2.02658008997031   -0.92348672928435   -1.12181992156715
H           0.60231160292728   -2.30066097620609   -0.79379177129993
H           0.82655902196822   -0.83385486264816   -2.07808189258307
N          -0.08993948348807   -2.55355624337413   -0.01982640969925
H          -0.87014220215970   -1.85540422259087   -0.09972417680779
H           0.38919445485353   -2.35594074018429    0.91675418971241
H          -0.42960639440066   -3.50546510423159   -0.09199944437353
