    26
        -50.45596418  Gyration_radius:  2.43490299119 Dipole_moment: 2.388
 S           0.64942788557732    0.04498147044363    1.43040072485195
O          -0.36738317183802    0.23481318294223    2.41172838610024
O           0.59970441401890    0.96583701925567    0.31473167952821
O           0.56495446439436   -1.40049013488059    0.86003685923187
O           2.03367693712826    0.06549010148319    2.04733967018365
H           2.67726977014807    0.16229364985417    1.24107629376142
H          -0.33650491770106   -1.54047042454572    0.40981886901818
O          -1.70808880547789   -1.64094838412802   -0.26054388356546
H          -2.14801439270262   -2.46606381289448   -0.04598211372715
O           3.33051200488561    0.34418615799595   -0.08061321411992
H           3.10240377006623   -0.46093067466421   -0.62491358849859
H           2.82040961889622    1.06722129443770   -0.45940365589541
O           0.09471136979638   -0.30198227349541   -2.02189021238408
H           0.24942415943855    0.28701455148457   -1.26328567831233
H          -0.68343712332139   -0.82077390632303   -1.78807263608660
O           2.31673086915969   -1.69263774627046   -1.38721521266038
H           1.56251390329808   -1.24580633304085   -1.83075819206865
H           1.93096373924124   -2.17949035246038   -0.65269568283786
O          -2.75968246269236    0.22766001685492    1.10862686119386
H          -2.07079153463135    0.28571461275052    1.79199823305407
H          -2.64040560217352    1.04247870020529    0.55940463480642
H          -2.21990711993941   -0.90903607676269    0.23580223457454
N          -1.92477009906062    2.31089608677471   -0.37891363306169
H          -0.96160666243744    2.07708733677384   -0.15013661744121
H          -2.09372286193082    3.26271002205081   -0.08008747710356
H          -2.01838814219102    2.28024592607591   -1.38645260863599
