    26
        -50.45212629  Gyration_radius:  2.45398943042 Dipole_moment: 7.624
 S          -0.93905182588678    0.97061287320210   -1.23029841962883
O          -0.56822723554525   -0.42050116219261   -1.01067122705997
O          -0.20056549454884    1.59599302821545   -2.28548302337642
O          -0.62635659220553    1.71186067220599    0.14289742079639
O          -2.40209102002540    1.12077511609540   -1.31941064899983
H          -2.81087070325962    0.81106953098685   -0.05933002946017
H           0.35282731545820    1.63047496824899    0.29975608505030
O           1.92846314909506    1.37004926508970    0.46538219590347
H           2.44346196582712    2.17829831090914    0.48143683593086
O           1.52722983342085   -1.16509445323511    1.61716588005784
H           1.71394655801101   -0.24542481750904    1.38012073902333
H           0.56415269355018   -1.24364974136495    1.65435153702193
O          -1.27499526104439   -1.48169261623810    1.16320314646506
H          -0.93930034849628   -1.10995988781854    0.28330330000456
H          -1.43090333092536   -2.41326832598842    0.99648731172767
O           2.11837116311493   -2.22225261667863   -0.82227116611204
H           1.88994017764112   -1.92654092969952    0.08459426337070
H           3.04353155538351   -2.47198914087818   -0.79516401323665
O           2.14592051151133    0.30889731245552   -1.84423658354104
H           2.10429004439480    0.94366371108947   -0.44473929079077
H           1.97953108932325   -0.64092571357680   -1.66426245179923
H           1.32137242634491    0.67681248448329   -2.20852599975168
N          -2.98321382483151    0.55989057947090    1.04817539934044
H          -2.55524139254259    1.32434360157265    1.56427191609288
H          -2.43575042144213   -0.32044819193097    1.22664650920479
H          -3.96647105225290    0.45900613309595    1.27660033377458
