    26
        -50.45212628  Gyration_radius:  2.45397777661 Dipole_moment: 7.622
 S           0.34185621444476   -1.69471930289414   -0.59254529608636
O           0.42139800722610   -0.33603078260324   -1.11067763009027
O          -0.75467691161193   -2.44388993733650   -1.12756880170882
O           0.15400395245975   -1.53573737501993    0.97987991561542
O           1.65096007742721   -2.36681059087963   -0.66616759168240
H           2.39880171852280   -1.66102783126692    0.22505188988524
H          -0.70599593791563   -1.05588088661513    1.12200559362226
O          -2.07416207942158   -0.21984497207172    1.20946962110469
H          -2.77215769364769   -0.68821993060168    1.67009826187423
O           1.85307456847408    1.30690580806940    0.15494537265205
H           1.24239998394839    0.70617826485528   -0.38475336360349
H           2.21445862484526    1.92888493352387   -0.47941870670702
O          -1.56191162234190    2.14680491408094   -1.74635451984447
H          -2.35387925510157    2.68367944052817   -1.80644122827101
H          -1.22764169530001    2.25686128925980   -0.83082863471602
O          -0.75466969929036    2.23874862198460    0.85324219500025
H           0.17658261679771    1.98514148282020    0.79404540009502
H          -1.23221915793845    1.44680041348156    1.13890286440004
O          -2.50288908811344   -0.37698682591024   -1.30029091394636
H          -1.91216288423768   -1.13384334894695   -1.46194676015277
H          -2.32544502262015   -0.24382795475427    0.22081732804413
H          -2.04867915522166    0.41928799229087   -1.64932616362135
N           2.87522724728995   -0.99306390428381    1.02870997101261
H           2.38366455161954   -1.21991662039053    1.88941388055735
H           2.63961379382601   -0.00590307946174    0.75166067160046
H           3.87444885593338   -1.14358981792746    1.11807662498393
