    26
        -50.46793854  Gyration_radius:  2.51171461051 Dipole_moment: 5.772
 S          -0.43165931492409    0.67768250655965   -0.13434128973289
O          -0.18182864682858    1.93951604777836    0.55237348066567
O          -1.06376328000091   -0.25434106459793    0.95323302915725
O          -1.34767582676460    0.78439306428720   -1.24223851056366
O           0.83790841076926    0.04222333732007   -0.51603732525713
O           1.25283408334709   -1.02140409139897    2.10653985136255
H           1.64990452030184   -1.41836149092962    1.32509252743085
H           0.32855499344645   -0.83751045046947    1.85022797883398
O          -3.71829028779571   -0.40324300504100   -1.38872817205882
H          -2.89384536399314    0.12607332008778   -1.42964825056035
H          -4.34676226807177    0.12138267728681   -0.89104362482404
O           3.20425900932931    1.20505128630377   -0.43992066188405
H           3.26251796452422    1.83082551019056   -1.16319105781015
H           2.37494826982186    0.69481302575717   -0.58799924662862
O          -0.27783949263293   -1.64349772189079   -2.23615217138235
H           0.25360680725129   -1.05738944436183   -1.66245914331539
H          -0.81667363184070   -1.04716360002635   -2.76373526387223
O          -2.03038908707071   -2.18947690360964   -0.31278845303157
H          -1.48365137063671   -1.07945986862092    0.47530116764461
H          -2.82762884686726   -1.76689446726686   -0.69521394395217
H          -1.38664978773659   -2.23426117966489   -1.05879444105339
N           1.95273297230533    1.52692900989462    1.88705969667148
H           1.02588722132021    1.80712899264936    1.39584930735223
H           2.67788184300191    1.55356939935239    1.13643454935003
H           2.17572721254520    2.12390236670877    2.67528574584457
H           1.80989389719933    0.51951276368707    2.16489422160689
