    26
        -50.47029308  Gyration_radius:  2.48016580418 Dipole_moment: 3.134
 S           1.19623369095180   -1.50164985216499    0.71190052733834
O           1.32502161188768   -0.77089922107530    1.94359882925989
O           1.97991794577873   -0.95310067964080   -0.39154507122295
O          -0.19479516180906   -1.68832432375208    0.30330011490736
O           1.77604884351324   -2.94999855353835    0.97929664363330
H           1.69864614701133   -3.38690423127770    0.13686888421048
H          -0.84652211041463   -0.40445350725298    1.11300356826145
O          -1.16808484508715    0.41481476088766    1.55168036941672
H          -0.69720405458239    0.43047026311375    2.38945290792196
O          -3.33333684522187    0.48684718914585   -0.17252750224319
H          -2.66229082526049    0.60749496188194    0.51805241622497
H          -4.07806307897152    0.05067837583717    0.24403873665383
O          -1.70253933356776   -0.93909016882867   -1.80978487129684
H          -1.27722726031332   -1.43626078812637   -1.08825975166493
H          -2.40592522695052   -0.41655872296341   -1.37327441894492
O           2.47288178813092    1.44901413296242    1.04589821932294
H           2.98306599446979    1.03961960359487    0.34229914937694
H           2.10966898629390    0.69179000546202    1.54627312955342
O           0.13904052817730    2.32351973301209    0.06943418626353
H           0.25650546124983    1.40681039976032   -1.18710855561354
H          -0.46208967279466    1.81585460514715    0.64549103217727
H           1.02877944420159    2.21632423972160    0.47497854227829
N           0.42929876156108    0.59475390621759   -1.86656501591309
H           1.11074257990885   -0.04498449584833   -1.38046607152265
H           0.79724022127230    0.92062895544519   -2.75298715418509
H          -0.47501359945147    0.04360339229557   -1.99304885423460
