    26
        -50.45596417  Gyration_radius:  2.43490329721 Dipole_moment: 2.388
 S          -1.04720280329103    0.31619719086359   -1.12830923352393
O          -0.81423698226333    0.82866170878323    0.20518690561682
O          -1.99955210215968   -0.74198299771769   -1.20722392728127
O           0.31839628377220   -0.16295331749397   -1.70058100194616
O          -1.40144459814185    1.45861776168358   -2.05920059168893
H          -0.80118217582205    2.24397647246672   -1.74859986616885
H           0.66806654257857   -0.94270796518866   -1.14858048988991
O           1.11571367545867   -2.09156276030606   -0.24294441922647
H           1.45419856570579   -2.83196270984537   -0.75050507490504
O           1.72593277663302    0.38995456963708    1.02822894349652
H           0.78458395126195    0.58769482911371    0.88310723890626
H           1.81969088067253   -0.55262280517390    0.84909435222863
O           0.13214306315035    3.17369789843879   -1.06206262309979
H           1.04707148002383    2.78800229924474   -1.16566742803864
H          -0.10064073078046    3.04609467512236   -0.13688522931830
O           2.35493908032400    1.78586987834739   -1.19223386174541
H           2.08634665812853    1.11000060100240   -1.82186652338085
H           2.32939550732266    1.34969034704938   -0.31230003592155
O          -1.22786459119628   -2.65812713346663    0.56859237947868
H          -1.71833928419125   -2.14895824786883   -0.09859414478710
H           0.21888153422796   -2.39639328061349    0.14020116454159
H          -1.33641240780500   -2.14524923772796    1.40824210268172
N          -1.39569185746518   -0.84713241534372    2.55395525987902
H          -1.32909128463043   -0.10029196595420    1.86659351415121
H          -0.62649233749061   -0.73812880577717    3.20305831314727
H          -2.25720883390968   -0.72038458924048    3.06929429669850
