    26
        -50.47136179  Gyration_radius:  2.44246862248 Dipole_moment: 2.067
 S          -1.43698684913691    1.42419247938933    0.45709663270434
O          -0.61919661256329    2.05744735807533   -0.57810157144425
O          -0.69076420564326    1.10134961539841    1.64084131617485
O          -2.18174867678226    0.29622741912252   -0.09007949179657
O          -2.51929502739434    2.50463932496922    0.86534383198663
H          -2.92289364499009    2.68478644570545    0.02373870777027
H          -1.60786381936955   -1.15224657215114    0.30718742173685
O          -1.25100517771385   -2.05872914357844    0.50044653639654
H          -2.01705530729362   -2.61994226271952    0.62839008939151
O           1.97649309913144    1.94183096389785   -0.27574325358587
H           2.24800991837506    2.21816768540716   -1.15356990054626
H           0.99639137977920    2.05136322527616   -0.26025297783861
O           0.55706975632485   -1.11242319018815    2.34385441616754
H          -0.06357805055022   -1.68455935833833    1.86043843289222
H           0.12107420975576   -0.23583088466139    2.31954190749265
O          -0.66778594579385    0.16047329567610   -2.42267477826056
H          -0.56988403171110    0.93083908792644   -1.82647906634931
H          -1.55012237495303   -0.16609709228389   -2.22248840379700
O           0.74660181672317   -1.85298571512133   -1.38502981686866
H           1.74977947947435   -1.16365613030611   -0.39733407227761
H           0.04702638249395   -2.15229022767692   -0.77890869784153
H           0.32503859605507   -1.13401707555210   -1.91049938298255
N           2.24606721445388   -0.64095157417414    0.39219500135706
H           3.20164918763406   -0.95824746546896    0.50748862822018
H           1.66818413624087   -0.82618109802344    1.27442751060949
H           2.21479454718750    0.38684088996173    0.18017096072072
