    26
        -50.46248714  Gyration_radius:  2.40593444201 Dipole_moment: 4.391
 S           0.21676501292441    0.26166771168506   -1.21209998827153
O           1.53806055906009    0.31659265318056   -0.58385939769162
O          -0.56441737185258    1.44371817341497   -0.90834111392273
O          -0.46933416251545   -0.96652888425323   -0.78689043166471
O           0.39476844943073    0.19728794665398   -2.74845240809549
H           0.96441923612343   -0.60960594578302   -2.86635161490922
H           0.10807376593936   -1.14861281530375    0.71449827273737
O           0.51341049783676   -1.10590946969919    1.61716286521497
H           1.44125106480677   -0.91700467347233    1.44713727094394
O           1.23856400866291    2.40325840769435    0.96308189294944
H           1.49901626187879    1.64565197695811    0.38356553820904
H           0.67324754540283    2.94005469500665    0.39825381372899
O          -2.79848267470346   -1.14273914898340    0.48748647670659
H          -2.02845957487072   -1.14222733326043   -0.11891169958409
H          -2.61878009060878   -1.81701141855429    1.14562015648858
O          -2.32066693392927    1.39650888774133    1.01367872411887
H          -2.71095572715426    0.49508957614836    0.89795226490840
H          -1.79304071653322    1.53815337465025    0.18813769962294
O          -0.36167830642755    1.14399432816152    2.48696034403133
H           0.31748125448828    1.74268759522782    1.99178360472839
H          -1.31271003006838    1.28434617351381    1.91289222150941
H          -0.05433499896802    0.19519509166735    2.27741745010629
N           1.91213720089828   -1.88686663025534   -2.35241329033368
H           1.27225295778420   -2.57723093165100   -1.98129842226254
H           2.25331288551988   -1.32804702530471   -1.57612816324909
H           2.69009986721900   -2.36242229509942   -2.79088207616438
