    26
        -50.47029302  Gyration_radius:  2.48019092977 Dipole_moment: 3.135
 S          -1.63170023971455    0.13199841383394   -1.22940753388918
O          -1.81219043809596   -1.28758786836104   -1.08839412842763
O          -0.52718511116014    0.50837490896279   -2.10762817471087
O          -1.51762540987719    0.82150479208607    0.05442988030636
O          -2.94289638995262    0.69172813642354   -1.91706350379477
H          -2.76401984105937    1.62021388423384   -2.02781947483048
H          -0.99546777567772   -0.45939797276941    0.95756951515431
O          -0.61515499947484   -1.23379544971689    1.42949984376273
H          -1.12072014620983   -1.98045383370206    1.09672630806537
O           0.48201373842832   -2.14884027377988   -2.11112269715710
H           0.58693658000965   -1.45200636864826   -2.76403125777493
H          -0.41997450221222   -2.01068799748790   -1.76041014971476
O           0.38282198221485    2.28742987481032    1.29427753085036
H           0.53213602471082    1.76556456604433    2.10900999830322
H          -0.45584964159335    1.94948689178587    0.93210969434506
O           0.51282849573643    0.46475786335952    3.30249857417446
H          -0.08476348633195    0.54732565489387    4.04708633515741
H           0.18075057363278   -0.26934107767089    2.76157459562870
O           1.79111672362037   -1.48391071762860    0.12714002533277
H           1.04167127439721   -1.51075834137283    0.75045875604270
H           1.45039756274350   -1.89990608604010   -0.69648950682521
H           1.83783415111796    0.02125291637220   -0.27941508724291
N           1.61246481435351    1.00585682020597   -0.64095798549925
H           2.41092407214201    1.42694626127892   -1.10188708685695
H           1.26181338302755    1.60593580849520    0.16814060739299
H           0.80383859537447    0.88830919438489   -1.30589506782908
