    26
        -50.46892630  Gyration_radius:  2.48084741902 Dipole_moment: 4.926
 S           2.11261600651225    0.13496674081947   -0.53281694426607
O           2.00140566711790    1.24753211412136    0.40207027404745
O           0.92714095620162    0.02244691318292   -1.36559643090309
O           2.49183086490180   -1.10069348667497    0.11653347293440
O           3.30142954722723    0.48988549830888   -1.51874011306430
H           4.04658712883154    0.19076929136041   -1.00954170913489
H           1.26099640101968   -1.65331341222731    1.00712073287217
O           0.48154090737504   -1.99353124269352    1.51070121929484
H           0.83223238181238   -2.58673678047035    2.17674247787155
O          -0.65322417276491   -2.17699349558752   -1.06343591307552
H          -0.36869449998127   -2.43677156029579   -0.17699308936749
H          -0.03083316591037   -1.47821092691333   -1.32735077287113
O          -2.66388469261059   -0.50419308503007   -0.46517366449648
H          -2.08072811784660   -1.23483201274197   -0.77036712104814
H          -2.36802259072043    0.27186261895044   -0.95954180804914
O          -1.13550667657456    1.61205388127241   -1.62565521403130
H          -0.35606588786325    1.00488186835886   -1.59606851228053
H          -1.17241139948638    1.95616297264965   -2.51880108641401
O          -1.53955579713559   -0.18455604985623    1.89156992203572
H          -2.11414085501871   -0.36635743771706    1.10064933508396
H          -0.84620273741549   -0.86936639371312    1.86247182326544
H          -0.90405788334373    1.09257678775038    1.45288989831608
N          -0.43130395356070    1.96012595398565    0.98343717751028
H           0.58709309329984    1.71267536780448    0.80146272776706
H          -0.50684479049339    2.78808733956622    1.56316186635738
H          -0.87139570360186    2.10152854576113    0.06127145165874
