    26
        -50.47136196  Gyration_radius:  2.44276941546 Dipole_moment: 2.076
 S           0.16072032389722    0.42916680957472    2.02383874263750
O          -1.22606439746535    0.41252166671295    1.65103236064678
O           0.91602564223046    1.49511492747241    1.36436285989721
O           0.82684991199297   -0.85685965501875    1.85544110335969
O           0.22641032331103    0.75560637103630    3.57127630718025
H           1.16615729608911    0.79324913522403    3.70906750544312
H           0.14351800537935   -1.83865939683227    0.78058286404221
O          -0.23153006472943   -2.44811062823368    0.09197668053250
H          -0.14801401332259   -3.33243380411106    0.45138227516130
O          -2.48021274252695   -0.90436240208061   -0.25798132615893
H          -1.86950166398764   -1.66041809012780   -0.21730923397343
H          -2.24110155147837   -0.37878944525459    0.53309046054766
O           2.51181666351950    0.04576329073766   -0.16997522953501
H           2.58833734118852   -0.70535593745591    0.42599212456755
H           1.98129811073245    0.68964550773368    0.34244535854690
O          -0.22883695034496    2.69747382111291   -0.65686785386597
H           0.08717332101403    2.28658522502638    0.18227490416675
H           0.53160923664020    3.16156030818275   -1.01321075592246
O           0.90303996180917   -1.05375942605942   -1.99568198508550
H           1.59574616953036   -0.60240029366874   -1.45969130187462
H           0.53792001356236   -1.73024581251137   -1.39957032902700
H          -0.29857420966402   -0.05434473737100   -2.11714136302345
N          -1.16090242687294    0.56377719404638   -1.98627922254528
H          -1.81590512471163    0.01897246642341   -1.33750146923349
H          -1.61052574402741    0.76978759969186   -2.87088085281045
H          -0.86545344185605    1.44651528571460   -1.50067262374068
