    26
        -50.47192566  Gyration_radius:  2.43559217461 Dipole_moment: 1.710
 S           1.96184856427470    0.07130723078779   -0.55572460971023
O           1.67687046826309   -1.03683546568259    0.32279508604948
O           1.60159684395330    1.35875742727920    0.04732987272399
O           1.40180725618899   -0.06729401263247   -1.88750636251517
O           3.53374297059895    0.10401406117826   -0.74344826207651
H           3.63812803821569    0.68820898119285   -1.48729857742055
H           0.45862127170137   -1.44833994020715   -1.79980598201240
O          -0.00696940490804   -2.24754382882816   -1.47509056625305
H           0.59285859655936   -2.59361386196703   -0.80598586618744
O          -2.25528144028719    1.29747831858014    0.16352821627189
H          -1.17357403930409    1.39424271979258    1.28358550368682
H          -2.31871870067334    0.33392167189448    0.03692588520156
O          -0.27042442334616   -1.35443499609519    2.13472064656733
H           0.53811458147703   -1.40158505151086    1.58793538779407
H          -1.00107806248033   -1.52938229054184    1.51497257655865
O          -2.02538278587096   -1.44761757159634   -0.00178493339015
H          -1.30015503742628   -1.73022263005035   -0.62330325496878
H          -2.76728191494931   -2.02806021987376   -0.17681743701136
O          -0.39832065693201    1.97961429032541   -1.63814552215332
H          -0.18334425524494    1.29926888917270   -2.28502027678409
H          -1.73521910658626    1.63440486160638   -0.60016067988202
H           0.36278200507237    1.95925674660397   -1.03057110899548
N          -0.29845443247448    1.25526084343504    1.89139884048560
H           0.53050392015324    1.36920301856881    1.25533623224452
H          -0.30212226371393    0.23709905384550    2.20262237112755
H          -0.26054798252880    1.90289175553273    2.66951281060414
