    26
        -50.47192574  Gyration_radius:  2.43565744388 Dipole_moment: 1.703
 S          -0.78401552416553    1.88418564909621    0.02811112694322
O           0.67705594146125    1.98785076812357   -0.04451839702788
O          -1.21533522564369    1.09026887381196    1.15272694332167
O          -1.35158490043867    1.47207072273248   -1.24258152845979
O          -1.31203536614359    3.35441155162598    0.28628215926713
H          -1.20620322554617    3.76194839262801   -0.56706653115938
H          -2.18018953702807    0.06047707399089   -0.88854096357073
O          -2.55646228780789   -0.71454934990995   -0.42091836139313
H          -2.71322807134988   -0.37910163142445    0.46800968546507
O          -0.05695012668861   -1.02005209759746    2.32793793161289
H          -0.59132913309952   -0.23724658101184    2.09004106555921
H          -0.27290434792404   -1.68486450207819    1.64982073743747
O          -0.60329955618142   -2.41473810796751    0.00153616855848
H          -1.34372155668441   -1.79114618952893   -0.23308038039707
H          -0.94734493584908   -3.29881883534348   -0.13264025787749
O           1.83126446010817   -1.57309528161972   -0.98671989157469
H           0.98782316465641   -1.99260828581591   -0.73916901138739
H           2.10936483634780   -0.67514868313636    0.25797266898917
O           1.00746025063215    0.59554208476453   -2.32011707263453
H           0.07576982802052    0.60067351232203   -2.56383543067765
H           1.04559211796175    1.21355368868544   -1.56816832396509
H           1.60192561490706   -0.87920284772253   -1.64482409012343
N           2.01480068822698    0.00066445974456    1.08813792553118
H           1.31170315564338   -0.43573969537822    1.75787074774219
H           1.56689346801168    0.87511070236616    0.71468643698379
H           2.90495028931477    0.19955459901104    1.52904664308522
