    26
        -50.46192230  Gyration_radius:  2.42603558344 Dipole_moment: 4.597
 S           0.76578527547174   -0.62446609841267   -0.98397082051157
O          -0.35023813084719   -0.31581643133960   -1.84501923700167
O           0.29646503978729   -1.14653960056209    0.31407848468104
O           1.63853318345102    0.52600317719603   -0.75677164292589
O           1.59821813854211   -1.75014436001639   -1.64986464962336
H           2.33995225950021   -1.86804897348111   -0.99989569952230
H           0.81830454023252    1.84150106472252   -0.42513601861150
O           0.25391255832039    2.60615704638103   -0.12411862125143
H           0.77192857012034    3.39666245579969   -0.28231530347773
O          -0.54164682936743    0.84166346663882    1.81551177485217
H          -0.12200641696526    0.07283756447402    1.35791411154442
H          -0.20235470262347    1.62923228836529    1.35702782078488
O          -2.18772245073829   -1.91668945018064    0.25961985580223
H          -2.25481401904905   -2.56660538257366    0.96185860865578
H          -1.22302624456325   -1.70859986015278    0.16266032494998
O          -2.80088061954183    0.50529361943366    0.75648279655540
H          -2.72061629640834   -0.48974984128411    0.53324846764483
H          -1.94742838380201    0.69381656824505    1.33028365413438
O          -1.98902177809149    1.62675064170481   -1.30672201755441
H          -1.46887345336058    0.87500726005490   -1.68718904335584
H          -2.57919401154463    1.01971731810023   -0.16660596173307
H          -1.30290162752568    2.22576417031652   -0.95485694672763
N           3.24336969649197   -1.50971807477582    0.36715674766465
H           2.71330211152375   -1.83372050332973    1.16590749383873
H           3.02072244166404   -0.52757979737619    0.22967989076374
H           4.23023114933042   -1.60272827794716    0.57103595044205
