    26
        -50.47273117  Gyration_radius:  2.44000387322 Dipole_moment: 2.886
 S          -0.88478828644984   -0.03615665074531    0.35997635207682
O          -2.03503298093414   -1.02928570081699    0.04862487582554
O           0.33227825020538   -0.56194328621086   -0.25191315263826
O          -1.28066486329704    1.23705757535004   -0.23723413765360
O          -0.72492247367196    0.07778801656124    1.80363044426511
O          -1.27030950288144    0.61623232705846   -2.84130633263133
H          -1.40422751738597    0.88061786655167   -1.91074797313587
H          -1.81260788945395   -0.16282905257925   -2.97382150380251
O          -0.20924795496095   -2.28123657268390    2.88994067191074
H          -0.83942049114554   -2.43998526790664    3.59463709171482
H          -0.37472756969680   -1.36516535278785    2.57790640772966
O           1.40743039881809    0.61910885743580   -2.38451283462409
H           0.57370791747037    0.67088565506622   -2.88823482358150
H           1.19024501253966   -0.01353925233704   -1.67049130390240
O           1.70149154762556    1.14674808507918    1.65166821462908
H           0.79784031177103    0.82015002216606    1.85354626088647
H           2.20254092787863    0.35803229805956    1.42831614959924
O          -0.51424772983492   -3.06594623226145    0.34399623221668
H          -0.36583089658707   -3.03853411339054    1.31282026585284
H          -1.61443052739517   -1.93756555813019    0.14069677435506
H           0.15808299098635   -2.47656182661966   -0.02866976396328
N           1.01311551441927    2.44080514876060   -0.56920550181201
H          -0.00260090553165    2.18291371928517   -0.45143864965910
H           1.15193416693533    3.43608406484573   -0.70357395115583
H           1.46927400785040    2.07881225068281    0.30865890261519
H           1.33511854272769    1.84351299956628   -1.40326871511461
