    26
        -50.45662726  Gyration_radius:  2.48376895549 Dipole_moment: 1.828
 S           1.94683547362966    0.67593722810892   -0.19254972330530
O           0.69770023021254    1.40808842444076   -0.19600958628783
O           1.88184455448140   -0.49598419300739   -1.06271132952587
O           2.45759380313532    0.35069603569996    1.12112051390472
O           3.01681997744517    1.65247609677358   -0.84632736885298
H           3.83216125973192    1.29051871886259   -0.51600007275082
H           1.41556570219177   -0.79735890063217    1.47866661252223
O           0.79050333153726   -1.54212236389163    1.66982127045810
H           1.34504736614263   -2.30993708197160    1.82068164885165
O          -0.30021064940178   -1.01564173788931   -2.18851106994324
H          -0.71235213417541   -0.02448691199598   -2.33503634191897
H           0.64276874153240   -0.84166826555117   -1.81998271452703
O          -1.18732103075028   -0.29505489345119    3.18168543589307
H          -0.40096272871173   -0.70626022098889    2.78466618320907
H          -1.78542240288988   -1.01064651272131    3.40447742917885
O          -1.78306984340359    0.85431819109030    0.77237979126267
H          -0.90321852150119    1.17697386992026    0.50796743711107
H          -1.70593278398329    0.67686943107742    1.72799290606507
O          -1.37107540652373   -1.62045484688712   -0.00689301906034
H          -0.59524181281883   -1.76113579968909    0.56726590396225
H          -1.69849171409048   -0.71723276395364    0.25283440836161
H          -0.80680785094422   -1.37859910997449   -1.34255455621683
N          -1.14972191817277    1.35844756798091   -2.26899978919151
H          -0.43821843479588    1.68659912604825   -1.60971744294575
H          -2.04845503739708    1.44429885266215   -1.80942458718099
H          -1.14033820048477    1.94136006994356   -3.09484192904590
