    26
        -50.45662703  Gyration_radius:  2.48361845658 Dipole_moment: 1.834
 S          -1.18355340487501    0.19234966753657    1.68550673289594
O          -0.36976562414143    1.17051873477886    0.99469247999158
O          -0.45601565738606   -1.05745985122074    1.89366621329064
O          -2.49081012876197   -0.02882590126295    1.10725349498665
O          -1.44393354052782    0.79799670768472    3.13170414451527
H          -2.22487291392832    0.32532324344970    3.39947265658685
H          -2.01850676215404   -0.84950226831443   -0.17195818373355
O          -1.71597078524772   -1.39975499455209   -0.93839123490555
H          -2.17137462334003   -2.23889406138185   -0.84702213736545
O           1.85890704340332   -1.25055968866759    0.94405358630828
H           0.94764550606831   -1.23403444411321    1.41824626112546
H           2.20986469103697   -0.22832399982312    1.01276091976853
O          -1.55651770857074    0.46755493445898   -2.99796456127332
H          -1.29829871995057   -0.05677143123465   -3.75816081652788
H          -1.77430954015151   -0.16185794838271   -2.28982871092506
O           0.59260081352378    1.33397197616186   -1.54442686074640
H           0.18889258718569    1.41045157671653   -0.66168700993502
H          -0.16217878540055    1.29341554870790   -2.16026440460889
O           0.97827579352416   -1.26041092315970   -1.40028607063391
H           1.58321818289454   -1.35751597897935   -0.06428696531732
H           0.03744597625379   -1.47699592027509   -1.26139654191558
H           0.97471822715767   -0.27841843092221   -1.56232672478536
N           2.40672796067609    1.21076719184326    1.03017310613595
H           1.42919040404125    1.47140005826793    1.18859838869473
H           2.66861171052035    1.56381663161724    0.11747551481755
H           2.99000929818441    1.64175959107907    1.73439673355187
