    26
        -50.45662718  Gyration_radius:  2.48376659761 Dipole_moment: 1.830
 S           0.69132346567771   -1.92529083306836   -0.31387259365549
O          -0.29116723110508   -1.71651595317917   -1.37491604799447
O           0.29960224450010   -1.25733023845013    0.90955753130720
O           2.03908461740709   -1.64248869392657   -0.75655646008207
O           0.65915992500694   -3.47927489107389    0.01815275583898
H           1.22969316356086   -3.83045274982377   -0.65724108983957
H           1.78817769409395   -0.15651609556230   -1.26710303696609
O           1.60798144516411    0.74980226852409   -1.62489651882140
H           1.85314317335894    0.71305063876494   -2.55140916062692
O           2.37566539237570    2.39663763528566    0.48524582132810
H           2.23982220342651    3.28122863915209    0.14108787332197
H           2.26788114210336    1.78883301896290   -0.26573367108950
O          -2.24923885047053   -0.22115901160984   -0.89631685499727
H          -2.40362700497492   -0.39477998393493    0.16202404041533
H          -1.51732543789973   -0.89383894177081   -1.15528215497175
O           0.11724080473644    1.35993886162292    1.62799425486915
H           0.98944086340773    1.77481746356465    1.49473529496128
H           0.27147872966935    0.40844409267364    1.49029747633541
O          -0.77935930718651    1.80437291025083   -0.80109285022162
H           0.02857441646891    1.48911275226785   -1.24743725582816
H          -1.73365286472898    0.69367396925107   -0.93072303149717
H          -0.54483373309997    1.77251977753516    0.16555947462834
N          -2.31920338335733   -0.63384805490631    1.59143592918050
H          -1.39217609007424   -1.06882579004136    1.59396749675693
H          -2.98085466689134   -1.24458265711425    2.05092812715633
H          -2.24683070115121    0.23247186662175    2.11159466048330
