    26
        -50.46529442  Gyration_radius:  2.46599271947 Dipole_moment: 3.047
 S          -0.88908234089114    1.91937166096731    0.28457864019264
O           0.07713307627499    2.69662554892408   -0.48331553384253
O          -0.36964965628223    1.39760116776568    1.52229529071559
O          -1.49143724484052    0.87740888648566   -0.54414717304745
O          -2.05532842654667    2.91970050164456    0.65944184702253
H          -2.23973882407746    3.34476569972261   -0.17214125124886
H          -1.71616242063145   -0.36357002065340    0.54206400196829
O          -1.72447258635752   -1.09659296475361    1.19560376402498
H          -1.71072734670536   -0.65529403509089    2.04794819220019
O           2.07524334861235    0.30230796931589    1.55109999558842
H           2.21531047983184    0.72568745202229    0.10987418827035
H           1.25825969029357    0.79264766152724    1.77170525587632
O          -1.37447598250452   -2.92485673856797   -1.04297922846332
H          -1.81689470437067   -2.40571248325226   -0.35878287853620
H          -0.82483735295553   -3.55944231091444   -0.57627956146577
O           0.19931852224522   -0.79615814717825   -1.74129088272427
H          -0.32168399284432   -1.61153761114754   -1.85690897528671
H          -0.45890203022396   -0.14626294754926   -1.41572813320543
O           0.85042018711986   -1.90243808817852    0.74864725025094
H           1.77003330890692   -0.62990832030256    1.43524356436423
H          -0.05102043980028   -1.72507907813820    1.08068331165098
H           0.80689273415832   -1.65319721215061   -0.18976549498242
N           2.03122129058285    1.04314922200004   -0.91893239631894
H           1.59127919134247    0.26510107220944   -1.43452118934409
H           2.86936330205110    1.37331342441414   -1.38427252029593
H           1.29993819759559    1.81236967086949   -0.83012007333613
