    26
        -50.46788073  Gyration_radius:  2.39859256 Dipole_moment: 5.648
 S           0.79002536858161   -1.60600572480323   -0.23801814610777
O           0.96531415604607   -2.63642379243969   -1.22538041082750
O          -0.59162024930742   -1.14509215709326   -0.15607651519933
O           1.67638443084046   -0.44394100600893   -0.48336895205339
O           1.18141093358108   -2.17012410972665    1.16261209887571
H           0.92328161767701   -1.48454344623889    1.82418409832998
H           0.86574951447390    0.34043025635752   -1.49316678667443
O           0.35396768842015   -0.33147919370186    2.90786649354834
H           0.17487697904640   -0.76966015795036    3.74145261595713
O           1.34080605741838    1.60092121837880    1.15443148212378
H           1.15748927026489    1.16664497157653    1.99730059822223
H           1.61689419337687    0.86870564527735    0.56015642124955
O          -0.86728951883467   -1.59367585628356   -2.82862220340185
H          -0.14394553931835   -2.09657534165093   -2.38624076281686
H          -1.63518216877616   -1.76600833944963   -2.27579968929225
O          -0.84881691004418    2.33838554537701   -0.06330962350322
H          -0.90286775613805    3.29485673635583   -0.05800608046363
H          -0.01451731560271    2.10394630319842    0.43849503256827
O          -1.84317746826393    0.27261407646141    1.64084457021439
H          -1.77897255378842    1.13328464183577    1.20613378955356
H          -1.53865071651863   -0.35661891704064    0.94982895691244
H          -0.53572695560831   -0.08078004510501    2.52135370138900
N           0.09229694109400    0.77031866791900   -2.10461423279876
H           0.47635892317285    1.32012740162022   -2.86620446943106
H          -0.48288265470616    1.35347059953084   -1.46317737048238
H          -0.43120627706749   -0.08277798644694   -2.46267459595254
