    26
        -50.47273117  Gyration_radius:  2.44006618377 Dipole_moment: 2.887
 S           0.07840583321256    0.13248338954152    0.94456528753409
O          -0.28724044699368    1.52424427867808    1.17294659969686
O          -0.52466494495194   -0.36094956824059   -0.29037409940814
O           1.52819629838501   -0.04754137591490    0.94474799305531
O          -0.45974410176662   -0.73655379201263    2.11135062503009
O           1.73462714797794   -2.64085028365871    0.31317007273044
H           1.73247065685271   -1.72602490430986    0.65493811479948
H           1.19018931383815   -3.14825968137082    0.91696262512319
O          -2.91377527247006    1.79608654729933    1.36928096999126
H          -1.93515000270726    1.79767596419332    1.29063314386717
H          -3.11589714658006    2.25894759614816    2.18408440736636
O           0.93534980130565   -1.66978681057334   -2.09434873007433
H           1.34081437434593   -2.28347753933718   -1.45360209013635
H           0.19251900037732   -1.28582103503035   -1.58636305552796
O           0.13947724002820    2.26057999407000   -1.34219257154809
H           0.00258326806566    2.14412136635742   -0.37689314691974
H          -0.64450742586027    1.88162447951271   -1.74811384554778
O          -2.80130686518729   -0.86846570426622    1.08764364212472
H          -2.31243042507923   -0.86404853892163    0.25141138196130
H          -1.42858005719636   -0.88446774848191    1.88814384584913
H          -3.10233713385015    0.05662406981794    1.20948790629953
N           2.16787515217141    0.54755089183637   -1.51686140684492
H           1.78757138196397   -0.35790181938049   -1.95475478912248
H           3.09058182301102    0.80422745745549   -1.84950018180457
H           1.45784929284816    1.31513209891097   -1.64594150284217
H           2.14712323825351    0.35485065767657   -0.48042117565209
