    26
        -50.46788068  Gyration_radius:  2.3987958115 Dipole_moment: 5.649
 S           1.19825905778707   -1.10723649237018    0.77307556304190
O           0.90899004889181    0.31898692852510    0.87377527620874
O           2.60881563755287   -1.38344141009763    0.81354512653252
O           0.56079804679215   -1.64745938787370   -0.45088488016519
O           0.50566852468167   -1.81429881125419    1.97860545497990
H          -0.42936030992555   -1.49815735436339    1.99015193962006
H           0.84208237328716   -0.54088136116004   -1.44531051487638
O          -1.97233246211715   -0.83040251805672    2.02844570140028
H          -2.29525479786789   -0.87976733805282    2.92969473542554
O           3.21715732442532    0.85166351535686   -0.47099655761965
H           2.96105616474755    1.47099510964052    0.21875378975175
H           3.18021160794057   -0.02547064658530   -0.02261406804285
O          -1.99844957033114   -1.06747207193474   -0.75148515810344
H          -1.08468515869450   -1.42376933932890   -0.69127423199214
H          -2.33159076182209   -1.11414759388887    0.15372782926302
O          -1.45393433093595    1.38297926808221   -1.47315148091278
H          -2.08651862986272    1.66161493381568   -2.13648088716729
H          -1.72060557753132    0.45531763058060   -1.20658587553843
O          -1.30613983729329    1.60343986692729    1.37220938013925
H          -0.38946554652322    1.25888723466750    1.28771105264931
H          -1.55478025151141    1.80950396177558    0.46147565126216
H          -1.80116899238695    0.13865104945068    1.84046505104337
N           1.05740176840677    0.39003267923230   -1.93907249662557
H           1.24122605606854    0.25779417335293   -2.92829168239269
H           1.91887534179214    0.74043199617652   -1.42416743922164
H           0.22374428443217    0.99220597718976   -1.78132125875005
