    26
        -50.46302228  Gyration_radius:  2.50672186073 Dipole_moment: 2.716
 S          -0.71018798202817    1.77344745790116    0.74552862196131
O          -0.87069147113207    1.88052726964621   -0.69257809544764
O           0.64413715714738    1.36177283162277    1.11077109996574
O          -1.72709545702888    0.99028243413129    1.40835675820685
O          -0.86870201954324    3.25702406937771    1.29528129332550
H          -1.04408148393137    3.11937404982895    2.22049772547604
H          -2.03864073204482   -0.52983721759273    0.95428421301021
O          -2.23801128097613   -1.43921525768743    0.61918668502528
H          -3.14781422008502   -1.61502280889633    0.86481493097465
O           1.66347438884753   -0.85752471341673   -1.77951509143434
H           1.82081092814566   -1.12640835267919   -0.83626177606744
H           1.77131500029726    0.58093201390487   -1.59846989937232
O           1.78570980858363   -1.14604692225490    0.82868410286374
H           1.39856527194173   -0.30466221659203    1.11570886342535
H           1.18090609474898   -1.84330037479325    1.14862609863103
O          -0.13452434598793   -2.99710175576424    1.38672245013899
H          -0.10156504158333   -3.69939320390600    0.73485131384799
H          -0.92355217532006   -2.46211396560335    1.17779158952262
O          -0.99404149893055   -0.63220702447030   -1.72710869540113
H           0.69021733280906   -0.94106815267204   -1.90556547673170
H          -1.47305509835344   -1.11695704605723   -1.03886608768823
H          -1.06941910256564    0.30309208891928   -1.47154285798085
N           1.66843546707753    1.63851092502612   -1.25730776329515
H           0.71849523017422    1.96227836307429   -1.50704318812784
H           2.40468647886612    2.25279371080591   -1.58488459199598
H           1.59462878095062    1.59082380806882   -0.21196220278634
