    26
        -50.46788062  Gyration_radius:  2.39843102724 Dipole_moment: 5.649
 S           0.88111570795503   -0.95215900208345    1.25524898311798
O           1.53664463285575   -2.21682886247888    1.45134004531030
O          -0.40065082619219   -1.09149121147575    0.57275842467722
O           1.72969378659675    0.00413835609314    0.50595735252163
O           0.60495871504057   -0.30031921434324    2.64529357878140
H           0.03884918639897    0.49069935403098    2.47789764417366
H           1.44419095434209   -0.40224985942694   -0.92484089047402
O          -1.01882818380731    1.75412290784672    2.13959288058551
H          -1.54422180831839    1.92150376320318    2.92375038406092
O           0.58326601905268    2.31163537731610   -0.07455835240002
H           0.04977850807092    2.48492812754296    0.71157200627736
H           1.13532666810915    1.53747921543105    0.17328424364055
O           0.60886867983367   -3.19891238413420   -0.82676686041661
H          -0.31927918219970   -3.24508543410758   -0.57926896851228
H           1.06694483494563   -2.99455059712989    0.02190208985387
O          -0.82371634797945    1.23724287319328   -1.99462695805089
H          -0.30740115628587    1.70209605494232   -1.27334714671422
H          -0.91357680132809    1.87054462720612   -2.70785427373932
O          -2.40438445516183    0.55403638141958    0.28509837710768
H          -1.78676824112283   -0.20090954338482    0.40642381077744
H          -1.63861015566612    1.35286893039235    1.46244609066067
H          -2.18440060547012    0.88601553164940   -0.59534332959341
N           1.02193523282412   -0.78229372496950   -1.83798353058004
H           0.19051794813925   -0.18787131183442   -2.03282418264325
H           0.76052589676228   -1.78071949801778   -1.58315058495703
H           1.68922099272139   -0.75392083700744   -2.60200084343175
