    26
        -50.46788045  Gyration_radius:  2.39837486594 Dipole_moment: 5.647
 S           0.85687781308229   -1.37525113682973    0.79553789093991
O           0.42083355085009   -0.05014228023655    1.22254350760205
O           2.13592887105855   -1.73384752864145    1.34598743993393
O           0.85177925915824   -1.43495591011859   -0.68514437705770
O          -0.21292031929365   -2.40120466609818    1.28142588323931
H          -1.09052398776902   -2.04666571386304    1.00137580585937
H           1.42120601310677   -0.07678877123268   -1.03923022182707
O          -2.56007855462949   -1.33426243168792    0.59993747132757
H          -3.22578267781976   -1.66197935302764    1.20690884215916
O           3.02095339284891    0.76135132116567    1.25637762385239
H           2.87814251744601   -0.21114985429945    1.33070071769516
H           2.44257732001123    1.12881329486202    1.93115756923269
O          -1.38801525399100   -0.63336026968811   -1.83238006482219
H          -0.55520606535343   -1.04419986885403   -1.51106624025890
H          -2.06403949898888   -0.95871373747654   -1.22427434487111
O          -0.81742482582695    1.87984083724280   -1.40950250300330
H          -1.13402031698237    2.40042393786613   -2.14882446966067
H          -1.08537138485120    0.93397235913999   -1.60032096083002
O          -1.90209178093025    1.13332870051541    1.12677016462712
H          -1.00820492251158    0.77959292437256    1.33143482565833
H          -1.76256473883576    1.64558730304157    0.31940456760275
H          -2.41401081632063   -0.37057086688224    0.83153630305265
N           1.73622816252954    0.95126528648224   -1.05624517267070
H           0.86124069530448    1.51383095419743   -1.08180711981902
H           2.33175042027012    1.14958838108081   -1.85362832267178
H           2.26273711847355    1.05549708895022   -0.13867481526444
