    26
        -50.46302220  Gyration_radius:  2.50671020516 Dipole_moment: 2.711
 S           1.83813815805717   -0.90882210444163   -0.03575997652923
O           1.76682208273607    0.51932964478524   -0.33982121960724
O           1.01547880153379   -1.69250661208806   -0.93809127911398
O           1.63068888867011   -1.18970388055512    1.36596673594688
O           3.33515762500845   -1.33929745145395   -0.35422177767402
H           3.80628082102571   -1.04297095424095    0.41771809539911
H           0.15810829472705   -1.09740859640196    2.02681729902417
O          -0.76276734081992   -1.07996783899472    2.38834418908950
H          -0.75835326263793   -1.66959048430435    3.14421484704612
O          -1.45722842670314    1.55415715669752    2.52846696390597
H          -2.41277962066539    1.55888061727380    2.45050673997807
H          -1.18591790139131    0.61700840362973    2.55271456994206
O          -1.76281557502679    0.93287376853932   -1.63914570817985
H          -0.52941209683092    0.58405491146893   -2.32526428766650
H          -1.37637904359065    1.56062589304491   -0.97337897345347
O          -0.34452532630195    2.24678536170172    0.13961232635738
H          -0.69279672935576    2.13073716168223    1.04492126121838
H           0.48495149860989    1.74575391673447    0.10638439633834
O          -1.59122031929209   -1.33629347744883   -0.24784456510228
H          -1.92009854274955    0.09975133367002   -1.13779450354135
H          -0.70378119674981   -1.62463279225176   -0.52197596353989
H          -1.54265535669456   -1.26702822003154    0.71705738639027
N           0.50565633575253    0.26430612152621   -2.59311991333142
H           0.78770727774379    0.51981139663760   -3.53222648544819
H           0.58676962803573   -0.74791174099051   -2.39877402590081
H           1.12497134689214    0.66205850582221   -1.84530612153911
