    26
        -50.46788076  Gyration_radius:  2.39866054404 Dipole_moment: 5.648
 S           1.26825582534876   -1.27207878612791    0.18543966427786
O           1.17292795921649    0.13979026383307    0.53994467546267
O           2.57762007969358   -1.63005542050724   -0.28870310217335
O           0.21124290288153   -1.59805542375464   -0.80089975425308
O           0.94554771873741   -2.10146858669117    1.46646524390837
H           0.10616848088391   -1.73473576268760    1.83422306436938
H           0.25587220304441   -0.37989405111881   -1.69831945091615
O          -1.25918556600360   -0.99011315647883    2.47432515674558
H          -1.26731126238001   -1.14611212120549    3.42013607341714
O           2.94681752708930    0.72572676395650   -1.44251272894280
H           2.97232052663925   -0.20214619159953   -1.11070676486580
H           2.99779252902686    1.25533429512712   -0.64138181877314
O          -2.23004996675350   -0.83924920255358   -0.13676274261811
H          -1.38917564712223   -1.25127323814261   -0.43453430805567
H          -2.24520162726196   -0.99229342956005    0.81663302335958
O          -1.71473129073509    1.65369621201004   -0.72078974178162
H          -2.50088259268647    2.05715780349259   -1.09093841546793
H          -1.96873385358653    0.71412548454391   -0.48526118054172
O          -0.60771428843424    1.46995169115663    1.90612575179610
H          -1.12292916586825    1.81312779300199    1.16409376558359
H          -1.06358026626658   -0.01562607036082    2.34861512912257
H           0.18915626528410    1.08850270506214    1.47542946632952
N           0.38749684752379    0.59802673986730   -2.12661149626560
H           0.21898367861526    0.59670773462211   -3.12730760292658
H           1.40137569286436    0.82359294362754   -1.90063191074230
H          -0.28208269976094    1.21736100051658   -1.62607001608417
