    26
        -50.45293250  Gyration_radius:  2.5398361146 Dipole_moment: 4.442
 S           0.74491166174295    0.88749258291372   -0.65341400828047
O           1.42875456560225    0.37789710361587    0.50779498425370
O          -0.63468015803466    1.23079177687611   -0.43093475796916
O           0.86147038745833   -0.12826407201520   -1.79166861101146
O           1.49077232522687    2.10429684218697   -1.20029893993766
H           2.46763986612463    1.77810377178398   -1.22945792888530
H           0.14460005585973   -0.90275737308650   -1.73984244629007
O          -1.52257895336081   -2.14850518100143    0.98698146148048
H          -1.63465811960859   -2.96219267248559    1.47954730793722
O          -1.82769121278164    1.68969591113032    1.97189043934810
H          -1.38011484361420    1.69011847244632    1.10858688656317
H          -2.76655444908827    1.61908029459408    1.78714942778180
O          -0.88766103549413   -1.89624691775737   -1.60549396801605
H          -0.92057204647565   -2.17607720107681   -0.66530456194290
H          -1.72095796314620   -1.38341889276655   -1.69955727855850
O          -2.87865784598186   -0.31852396738058   -0.79871180269831
H          -2.77794539160209   -0.85930035146497   -0.00389235659990
H          -2.21962105427101    0.38818344965228   -0.72076857384944
O          -0.22113105250412   -0.46649280679431    2.49650418664030
H           0.49653847660783   -0.18530079441271    1.90393461659405
H          -0.80610253607035    0.30990394562143    2.56693901245848
H          -1.02081296296446   -1.53073438729616    1.58968314867203
N           3.73474775422312    0.90610650368865   -1.03629417025447
H           4.62357966779352    1.31762188642576   -0.78424297787181
H           3.87305489743049    0.25624605404899   -1.79866646336709
H           3.35366995691521    0.40227601255639   -0.24046260616605
