    26
        -50.46788074  Gyration_radius:  2.39862567223 Dipole_moment: 5.649
 S          -1.03853163609134    0.03940198121257   -1.47596256527026
O           0.18060925613198    0.72483168846199   -1.06114783767851
O          -1.93382116730842    0.90402908815932   -2.19602973485857
O          -1.68480101616521   -0.56518882768282   -0.28732506464876
O          -0.62085703694934   -1.14552257051694   -2.40041028551294
H           0.08899897642856   -1.63764605119741   -1.92271296393713
H          -1.50545926077393    0.53374392878066    0.73957379007746
O           1.37354452865591   -2.36046310530120   -1.11298606184307
H           1.93035565649889   -2.79107333359564   -1.76373086984625
O          -0.10590415858881   -2.04074067385644    1.23093630555311
H          -0.79879926414647   -1.60166423241730    0.68993742184548
H           0.46029211530740   -2.47823285517764    0.58244372068584
O           1.03207943361142    0.07129798655150    2.26344386429514
H           1.23773230914530   -0.10251343573401    3.18284668968012
H           0.62927951082174   -0.77212096855239    1.90410132822167
O          -1.24896707096008    3.02436195754873   -0.76409614712315
H          -0.34617536163176    3.11002587789313   -1.08406357395445
H          -1.64672016986776    2.35211585575335   -1.36543982078818
O           2.46892541479653   -0.17952948398945   -0.19477201972165
H           1.89248751288988   -1.57537326087713   -0.76964556555598
H           1.71393195089609    0.29422713111591   -0.60913346300673
H           2.31133197920291   -0.07070894067430    0.75231519367038
N          -1.18038556028164    1.38114276491670    1.31632999148656
H          -1.83819556992786    1.60882564765970    2.05477025429647
H          -1.12213008715188    2.15618251514301    0.59101388240585
H          -0.24882128455451    1.12059132634791    1.69974354157716
