    26
        -50.47273120  Gyration_radius:  2.43989451174 Dipole_moment: 2.890
 S          -0.28583419187365   -0.90854426785265   -0.08368480911587
O          -1.56816069454479   -0.54788584103665   -0.68355730306065
O          -0.60926852684394   -1.94618703708261    1.02309379383823
O           0.61063595976217   -1.51120044930994   -1.06135662456639
O           0.34998838355817    0.23914563260814    0.55735416970732
O           1.36723186055755    0.81321280771122   -2.09841909094822
H           1.13364763311660   -0.10906726280965   -1.85543337344297
H           1.95609943596004    1.10897701116931   -1.39931634422499
O           2.84649194087838   -2.34227915475332    0.08846494863443
H           2.98394642143412   -3.26397220692184   -0.13600657782388
H           2.06458489251634   -2.04979313910122   -0.42823232210370
O          -0.93539450820151    2.56212892501180    0.77853366022156
H          -0.29248447909600    1.83081172969419    0.87440462952906
H          -1.75581229538726    2.17701853483197    1.13924299162633
O          -2.78320723569268    0.66157707011976    1.37270421272300
H          -2.75548237040540    0.07765143601156    2.13209431141151
H          -2.44919790081519    0.13742378855192    0.61945636582655
O           1.56887594539368   -1.46316315741365    2.27616176718149
H           0.18676771991659   -1.91582957850779    1.63612590810876
H           2.22154523694521   -1.84877017293543    1.65431684365846
H           1.42072785861418   -0.56123067052649    1.95537114804814
N          -1.07099754900985    1.80325027407545   -1.70643794214965
H          -0.07995410086129    1.60085855349407   -2.00134712357565
H          -1.45838658428341    0.85556451582145   -1.45395339498618
H          -1.05635778730710    2.33271347054510   -0.77081649865575
H          -1.61000507434648    2.26758917857221   -2.42876335586374
