    26
        -50.45293185  Gyration_radius:  2.53940367194 Dipole_moment: 4.471
 S           0.97699331963721   -0.49305333884186   -0.76180341354716
O           1.05941059785970   -0.75804737261380    0.65010339958906
O           0.68203180541659    0.87692090868038   -1.09610457571747
O          -0.06512404893472   -1.40526441031259   -1.41226586686921
O           2.27868632076589   -0.92169920828102   -1.43805999605100
H           2.14538969173968   -0.60433653888051   -2.40925566590485
H          -0.96156965924653   -1.48110089772415   -0.85893386814750
O          -2.33616730475443    0.72398487554005    1.38335339304686
H          -3.12305277219562    1.25423574777524    1.51350610892856
O           1.41476329470398    1.06761953109708    2.63745188953785
H           1.13941277033669    0.60579167174309    3.43217730896772
H           1.45464023064722    0.39745359517950    1.93401528578164
O          -0.92507715877774   -1.60659890770318    2.35781632833247
H          -1.38351816121154   -0.75908046564900    2.43461083596544
H          -0.09909824717708   -1.41707916532427    1.88701268377961
O          -2.12978248053612   -1.55059860539817   -0.02018874024145
H          -2.34897194186779   -0.64039462383981    0.27470920532202
H          -1.79936429759400   -1.96404089157196    0.80791651876925
O          -0.33483190020830    2.34011487717016    0.95710948228593
H           0.31200149389329    2.12299028437917    1.65323657256607
H           0.04300171699857    1.97116869646520    0.14079166558722
H          -1.59368979878349    1.37134925450639    1.22041287441118
N           1.54522910258699    0.07785605586867   -3.66514807328812
H           2.13268122185652    0.54073162186733   -4.34602321705196
H           1.02961170122986    0.77124009726662   -3.13062523973642
H           0.88639451361951   -0.52016278139955   -4.14581487629516
