    26
        -50.46044995  Gyration_radius:  2.45561791615 Dipole_moment: 6.758
 S           1.20100921270672    0.69375126215881   -0.71954919990822
O           1.40472827819720    1.96725694568267   -0.09185645868108
O          -0.15586934844108    0.51792623468558   -1.23805451987763
O           1.39945829977230   -0.44853143330877    0.35660255069675
O           2.20154452050302    0.34914471983117   -1.73251490756568
H           2.04324493159272   -1.04465001849846   -1.82885225164693
H           0.54543889861604   -0.66198478825376    0.82228114862770
O          -0.79611955295418   -1.26241809578764    1.48502150421598
H          -0.59212802598491   -1.57350078379267    2.36853373249995
O           0.34144066061453    2.20977040477936    2.31331057688885
H           0.29134305416606    3.15540344691326    2.46357868466410
H           0.77889113769585    2.10890739733883    1.43885565973988
O          -0.70939684857968   -2.01052152935633   -1.19254943630375
H          -0.90229267249984   -2.08762791086721   -0.24618889020666
H          -0.66767373858152   -1.03261205332858   -1.33453494810347
O          -2.26355176232983    1.98977015828402   -0.56372949909089
H          -1.43051085766939    1.55934322477668   -0.84707358845284
H          -2.92852067673794    1.72508390721670   -1.20105930898346
O          -1.99989644731635    0.94935413945999    1.91203773043445
H          -1.20685875350571    1.45136942289813    2.19796224924317
H          -2.25217217495411    1.35990223958099    1.06041638428610
H          -1.35217561488657   -0.42079297343445    1.62412468693191
N           1.83139949991575   -2.14408674889938   -1.78828378188616
H           0.78314106296454   -2.22233144307820   -1.54978965916128
H           2.38839267276576   -2.53638045488183   -1.03512625650608
H           2.04713425492901   -2.59154527016541   -2.67356220180998
