    26
        -50.44164628  Gyration_radius:  2.64952646081 Dipole_moment: 2.669
 S           0.00328137272387   -0.66999848211310   -1.66968303623676
O          -0.08793668127274   -1.16764646510654   -3.00092084290810
O           0.40787117970384    0.70512524316285   -1.55105576194459
O           1.00099209676228   -1.54424467016900   -0.83092428750847
O          -1.30095229459180   -0.90084490363995   -0.90362780185893
H          -1.05804751342141   -1.15281101603240    0.09693392493558
H           1.85514592984613   -1.46652101349850   -1.36326419717404
O          -0.70605678529574   -1.49438843929072    1.44026272407196
H           0.07620649799452   -2.03625397929558    1.30648394693261
O           1.75114298301470    1.65891514550233    0.51585065016864
H           1.28102871837774    1.30124677037916   -0.26669384137488
H           1.61828931913888    2.60862552269574    0.48433667999896
O          -3.27008280097731   -0.02476934543775    0.95087349199893
H          -2.95822165692442   -0.15493048908503    0.04814242136676
H          -2.85837131381203   -0.72433038935079    1.46840039681993
O          -2.04697439249787    2.18636376341331    1.93332311660348
H          -2.59261720271506    2.54536072975905    2.63440811680952
H          -2.56955298420597    1.46858182150194    1.51765129887855
O           0.14111686103933    0.68638878813145    2.43817440901651
H           0.83566545019720    1.00893511234254    1.82405279925198
H          -0.60526014775261    1.31256419111172    2.33355378490299
H          -0.37012769951701   -0.63264635821978    1.88896382588426
N           2.78822554903553   -0.98993902975531   -2.59665534597854
H           3.03691026444208   -0.01922859050222   -2.45458139951620
H           2.03533892721929   -1.02344035679555   -3.27756694575760
H           3.59298631347273   -1.48011355969496   -2.96643814739585
