    26
        -50.44164671  Gyration_radius:  2.64761298475 Dipole_moment: 2.672
 S           1.53738169682065    0.14539297179426   -0.92503268136510
O           0.32854791423198    0.26217294128077   -1.69540898643106
O           2.74586952006585    0.35354628577633   -1.64892431649609
O           1.54751549351772   -1.27025835781451   -0.24773318046645
O           1.46613139045035    1.05508804605316    0.30324003233970
H           1.01472322182488    0.51098865645821    1.09232327928414
H           1.66820130965600   -1.88641802771329   -1.03822131139935
O           0.40597909447093   -0.24525839025214    2.14393472695180
H           0.78651604785045   -1.11669712426140    2.00544539734479
O          -0.03963471637646    2.71357431576315    2.05717758302432
H           0.56252323626759    2.59836835530384    1.31339733208407
H           0.12558760275802    1.96547350881032    2.64006134945625
O          -1.87641151149760   -1.09483320146609   -1.16490958618648
H          -2.57774624755085   -0.62157157019941   -1.61735291513387
H          -1.05044993141665   -0.61385014901706   -1.38359299608593
O          -2.54965265109314    2.18668057753266    1.17808902149010
H          -1.65623205625421    2.49353158339230    1.44029939920831
H          -3.16931360981504    2.64388114946597    1.74831394024215
O          -2.03061933843372   -0.45026282050761    1.44201669433641
H          -2.33800183890255    0.47498622149329    1.34442401662712
H          -2.01801714345588   -0.81485998339508    0.53071992772516
H          -0.58961241093013   -0.33970929604812    1.90672758429597
N           1.88900352838096   -2.26351194368968   -2.59631908262210
H           2.44879084085521   -1.43974812542731   -2.79514605579159
H           1.00510139430194   -2.16406063928098   -3.07910033936493
H           2.36381916428710   -3.08264498403296   -2.95442884305759
