    26
        -50.46192233  Gyration_radius:  2.42600658397 Dipole_moment: 4.597
 S           1.34335122910844   -0.16503971842154    0.33333202461996
O           0.85324760477819   -0.18626156037657    1.69041512147341
O           0.69319226043190    0.91000731916778   -0.44087293437534
O           1.15453946336023   -1.44065022061486   -0.35510063552303
O           2.85973069940271    0.15592446396549    0.36817160626852
H           3.09776341541921    0.12493834740489   -0.59568907198326
H          -0.29776402821289   -2.03356670564085   -0.12563351208149
O          -1.25280910749709   -2.30202117839437   -0.02752138621773
H          -1.28259082627129   -3.24405490114834   -0.20057631663600
O          -2.50771726847247    1.12861895547274    1.05441182132300
H          -1.77991135970967    1.83645787298717    1.17769050026936
H          -2.33333760753166    0.76904151450483    0.08818827084839
O          -1.72829838581202    0.15888947655807   -1.13431193801589
H          -1.72656662971785   -0.79759788363799   -0.95896217591513
H          -0.78945967345059    0.44618361102514   -1.02159577302898
O          -0.48245679645572    2.67425289324088    1.06764688022389
H          -0.50280523854095    3.47185541405242    0.53523677120502
H           0.08360807769162    2.02500420797272    0.57667754974421
O          -1.59550766543443   -0.85169469262954    2.24557179951758
H          -1.65583009112871   -1.54514530234580    1.56082972206882
H          -0.63811939671145   -0.59881359779603    2.23694822176700
H          -2.20006178730768    0.29723654496537    1.67131292239818
N           2.81974651092507   -0.13648794473282   -2.22880574719408
H           2.18330274435215   -0.88814416383554   -1.97801572792443
H           3.42433657923279   -0.44740055244912   -2.97830521559572
H           2.26041726743974    0.63846780073217   -2.56104278719976
