    26
        -50.44164668  Gyration_radius:  2.64721832995 Dipole_moment: 2.669
 S           0.09263407121089   -0.49554131688021   -1.72776361366116
O           0.08499112757090   -0.84443872612416   -3.10834668681741
O           0.55963101698474    0.83157433788113   -1.42917117159323
O           0.96855187999604   -1.51349258785503   -0.91571228068000
O          -1.28102414281878   -0.72284618628782   -1.09335645758310
H          -1.13489952971068   -1.09018192661395   -0.11023112929557
H           1.86729548988692   -1.43388534803237   -1.36864399790068
O          -0.91226354254684   -1.58849469776328    1.21245903058942
H          -0.15735122459379   -2.16804897404258    1.07960813311436
O           1.80367722598328    1.46892818379339    0.81354082106544
H           1.73059144943090    2.42338557184777    0.87870216660136
H           1.37103844633230    1.22899333025190   -0.03292116071326
O          -3.33056702828809    0.10172760142637    0.69861245155354
H          -3.00573791318728   -0.67416140436115    1.16678715217371
H          -2.95776135288164    0.04204881290080   -0.18823870507049
O          -2.05430921131385    2.10853243851709    2.00029138533160
H          -2.63099524314221    2.42962126757644    2.69491042221115
H          -2.58553267655054    1.47614776491067    1.47205826745935
O          -0.01086475921825    0.41422269014522    2.49601391885020
H          -0.55954528998083   -0.80239227912107    1.77292809646381
H           0.74918680316728    0.74896794697386    1.97277610666621
H          -0.70609465956087    1.09885131452823    2.40616411228851
N           2.92464641580486   -0.88983157866311   -2.46591511419564
H           3.21532424387917    0.04176623298736   -2.19777827053025
H           2.23090340834552   -0.80157451215829   -3.20241768635176
H           3.72847499543343   -1.38987793574515   -2.82435577986527
