    26
        -50.45293214  Gyration_radius:  2.53961746569 Dipole_moment: 4.459
 S           1.30206223663444    0.26055796667708   -0.11351780683845
O           1.06898989332127   -1.07401996802932    0.37666409060348
O           0.48876626179208    1.27381369329585    0.50481553466379
O           1.10974397105002    0.27950307482561   -1.63141938333875
O           2.77805621357525    0.62138138681654    0.05039642637804
H           3.25859607483966   -0.20362700424865   -0.33689443569407
H           0.09942339737355    0.36897448592092   -1.92675294912499
O          -2.75303097310561   -0.51496162611029   -0.23736330099074
H          -3.51143831071854   -1.09473687842308   -0.31427845333679
O          -0.85088967683331    1.07497056487635    2.86604067023294
H          -0.25023529898397    1.21509870654548    2.11430947092955
H          -1.49205031763331    1.78808899559385    2.83336078752936
O          -1.29817978202055    0.52745974326529   -2.23304559688914
H          -1.52182908419480    1.40824318908906   -1.85870205148177
H          -1.80798209858697   -0.08009979447876   -1.65479079143963
O          -1.94534381112500    2.26244240471003   -0.31487485470045
H          -1.06045190691446    2.11073815545020    0.05086598408378
H          -2.47922619689137    1.50852443903615   -0.03040076110772
O          -1.27103650170836   -1.38007352378107    1.72589936080838
H          -2.20858081848359   -0.87504678701522    0.51815500552031
H          -0.39706619674243   -1.43117847638606    1.30307331032864
H          -1.20810844377968   -0.62660709429750    2.34106968014100
N           3.51749168625110   -1.61429697314049   -0.92546348393016
H           3.44633180805200   -1.62677076612303   -1.93427041843045
H           2.66971140365288   -2.01269775650496   -0.53173167693992
H           4.31627645121374   -2.16568017757471   -0.64114436698469
