    26
        -50.46292914  Gyration_radius:  2.5090959887 Dipole_moment: 3.630
 S           1.41695723335666    1.25130116110533   -0.79671850933068
O           1.60971960026906    0.65288717641310    0.50826941432027
O           0.16355186851726    2.00471416140028   -0.86712027555979
O           1.58302152993327    0.34696124271369   -1.91090329753824
O           2.57162619920113    2.33651283946476   -0.93808140306049
H           2.64855550575783    2.44115193591478   -1.88075866487511
H           0.58137590165728   -0.91687442328863   -2.06385490190279
O          -0.09690054058811   -1.62728454222756   -2.17954064465091
H           0.01065694196520   -1.94856739282459   -3.07638629304049
O           0.33988779245754   -1.41318917004444    1.84672004495623
H           0.26567195573224   -2.19443822209398    1.26491135310924
H           0.94372932984816   -0.80557206442308    1.39303936634598
O          -1.86402069406192    0.01046262268506    1.78294441106661
H          -1.13383649437269   -0.64895484644789    1.92538550879048
H          -1.05400732267048    1.21537887482678    1.84066720124467
O          -0.12454800306543   -3.32234607578718   -0.03811430089055
H          -0.05190513472359   -2.76061717633138   -0.83237962727964
H          -1.03844303678894   -3.60847969249182    0.00939697193624
O          -1.81166922008439    0.13756548047706   -0.88441172062654
H          -1.41158499617152   -0.59885185450437   -1.36933076107211
H          -2.04942044836347   -0.02578523850975    0.81679083031122
H          -1.19302421824051    0.87979649109208   -0.99591442158114
N          -0.27772019176767    2.00443789855206    1.69427134012715
H           0.63511847130893    1.51223897627815    1.69655187031322
H          -0.32900830898484    2.76784464933814    2.35856587540372
H          -0.33378370995616    2.30970717889768    0.69600065341872
