    26
        -50.44164659  Gyration_radius:  2.64819164251 Dipole_moment: 2.668
 S           0.50744451595779    1.06671844066762    1.35773491101843
O           1.07772240448823   -0.25363037868438    1.35333690435728
O           0.98506715203421    1.93529155525262    2.38019157122459
O          -1.05238671498979    0.92233180389147    1.45349386407188
O           0.65608262997548    1.70658571122211   -0.02412166066851
H          -0.18896567145773    1.44006871672033   -0.60541783683588
H          -1.17899391022118    0.56904799178680    2.39069772831461
O          -1.34067462704021    1.07006614054548   -1.36925942683888
H          -2.03633225545756    1.10961815105185   -0.70750399843607
O           1.41644751354421   -1.21353222162700   -3.03396367118335
H           1.48900579689470   -0.23852834755866   -2.96157901934956
H           1.55102007840632   -1.42524585705287   -3.95876051415673
O          -0.21919787041223   -2.40017646706975    0.51950743658976
H           0.46207601374354   -3.05254405428379    0.34388549262183
H           0.25334587930601   -1.61111222632402    0.85920904613372
O           1.26075364003909    1.48257932869479   -2.79448797900656
H           0.31079921483286    1.63017559511703   -2.84500093818260
H           1.50922474012904    1.71200988961415   -1.89185529765447
O          -1.00428349290517   -1.40452296777719   -1.85271617328114
H          -1.23815089522683    0.07381300954160   -1.60077117517435
H          -0.14467633778821   -1.45021091587651   -2.32088724428228
H          -0.84609995465997   -1.82899025797324   -0.98190857801401
N          -0.71143157989320    0.09345910676592    3.86496150609665
H          -0.32270810382237   -0.83822986929703    3.79337350348740
H          -1.25558530818714    0.15335513381740    4.71645208704424
H           0.06049715266433    0.75160298876389    3.91538948205266
