    26
        -50.44164653  Gyration_radius:  2.64864239258 Dipole_moment: 2.667
 S           1.74513182966296    0.12666403834981    0.42180197246760
O           1.31141561236040    0.93036910618205   -0.68929410870548
O           3.10356104150733    0.30363786410733    0.81065697933291
O           1.47349415177607   -1.37815765352434    0.06862509657592
O           0.80105060417289    0.32166322660037    1.60997793861991
H           0.01190363389655   -0.38068771853769    1.52507064302080
H           2.14177186856229   -1.55045380955949   -0.66812110329466
O          -1.04107375950118   -1.33962142110372    1.39138241138759
H          -0.56764991365791   -2.10607858005222    1.05694731526645
O          -1.64596154856023    1.29317340272217    2.68570221350217
H          -0.69918853021443    1.38069883567903    2.52743152710507
H          -1.81290884583363    0.34600158125073    2.72745442964775
O          -0.56141317980135    0.17472743387609   -2.39438273784722
H          -0.85424304284048    0.98328167951104   -2.81987791192834
H           0.15578909074306    0.44407806243933   -1.78255261162599
O          -2.93340555129276    1.98156533451982    0.40113759735059
H          -3.81919377296140    2.26650120999996    0.62992071411684
H          -2.45579521788528    1.86017796419543    1.24863404892077
O          -2.42132800856116   -0.48655667178954   -0.56753003490065
H          -1.63598757876894   -1.02377439390079    0.61489274627517
H          -2.69323026637188    0.41705876281022   -0.30347331476251
H          -1.78764139519962   -0.35920409118915   -1.30630968747454
N           3.35330721322490   -1.18611323091703   -1.67744796033353
H           3.81473558720541   -0.56433873078486   -1.02018985568776
H           2.98326941724117   -0.62269970609217   -2.43238701151475
H           4.03359057180649   -1.83191249484124   -2.05806929510359
