    26
        -50.46293000  Gyration_radius:  2.5095337217 Dipole_moment: 3.636
 S          -1.82222416405620    0.05658015425235   -0.94220536134098
O          -0.76305586247842   -0.80411646201783   -1.42691176323130
O          -1.39375880501600    1.45507352604879   -0.86921814788047
O          -2.46093836855367   -0.39049785319049    0.27391356751330
O          -2.94564545415124    0.01728163480086   -2.06790886572930
H          -3.72716538118231    0.28513585899882   -1.59558558534433
H          -1.58439246604595   -0.51709890365061    1.63030008784508
O          -1.04699204480381   -0.49887018728021    2.46031435252924
H          -1.67535683607018   -0.56815118482281    3.18104410884465
O           1.64393972650201   -1.64350335441969   -0.34285341865102
H           0.75769389289569   -1.54195340543288   -0.72218089157711
H           1.50548191376237   -1.97822794372760    0.56439982532283
O           2.40902963054787    0.86715940987714   -0.30914625349695
H           1.59391691147166    1.10093593606606   -1.48991420584707
H           2.30747721923008   -0.12086674510977   -0.26987874776007
O           1.12030728244144   -2.15181463044329    2.28035925679285
H           1.77650055903373   -1.72195710755947    2.83164965555240
H           0.30202275727587   -1.62754514229781    2.36481292370464
O           0.33788286978147    1.57112371882299    1.22377620530494
H          -0.34328291049196    1.66991724880939    0.53669833557941
H          -0.01744412714527    0.91284666163693    1.83864126312536
H           1.80376633269128    1.20928501527334    0.38771122771538
N           0.78065447082936    1.12767612365921   -2.25393818824724
H           1.06015798136032    1.51722156671283   -3.14656973298692
H          -0.03533341084731    1.61527837554604   -1.81771347274878
H           0.41675827313638    0.15908769943963   -2.31959618503876
