    26
        -50.46576490  Gyration_radius:  2.49386068434 Dipole_moment: 1.854
 S           1.20926290325358    0.34060284655298    0.70669370569802
O           0.60727822164799    1.55176474640263    0.20111283635764
O           1.44231599833962   -0.61673876603706   -0.37484675761125
O           0.42436989687645   -0.27864364894390    1.77948456559858
O           2.59725290437426    0.72658001562107    1.30669353714102
H           2.87536788649509   -0.09742307660925    1.75011115478611
H          -1.07766304745764   -0.73694030115441    1.35373038157990
O          -1.97409962031918   -1.00924130922775    1.03582631926244
H          -2.41374691579096   -1.41401870913741    1.78522542940316
O          -2.10264581902443    1.67822362602327    0.29497790603772
H          -1.15501712009470    1.72222691392006    0.51447570756327
H          -2.35599094397817    0.76297045040756    0.47979101631167
O           2.53517601600794   -1.55593026705085    2.64619445807675
H           2.61218197129721   -1.48743177146989    3.60052830637623
H           1.61996429981448   -1.29105599075742    2.41924853170587
O          -0.96394935784877    2.42039615124003   -1.98453364071764
H          -0.21586460781904    2.74031705136726   -1.46563455967227
H          -1.64001731058615    2.22597363409337   -1.29529334514460
O          -0.87786018601567   -2.07519564148197   -1.22000908312319
H          -0.59080747639842   -0.74136149781000   -2.26583465148068
H           0.01175049253892   -2.02012204398756   -0.84244655612058
H          -1.46890202602589   -1.80752656184065   -0.49437122617896
N           0.05843540666983    0.05448723889992   -2.47570270951788
H           0.78151276273330   -0.05955824105663   -1.70725498010941
H          -0.41487411871183    1.00888044086351   -2.35347837638277
H           0.47656978996572   -0.04123528895234   -3.39468797988026
