    26
        -50.46576493  Gyration_radius:  2.49391503998 Dipole_moment: 1.853
 S          -1.34624168805680    0.24624776345645    0.45224795632438
O          -1.35177274658048   -0.89738695442467   -0.42919068007840
O          -0.75364880577913    1.41004689232876   -0.20719505777587
O          -0.66988718311303   -0.02143653544074    1.72556774549040
O          -2.83352011652520    0.59021370001461    0.77692642615826
H          -2.74918217273001    1.26558305325124    1.47675977213380
H           0.90165901991314   -0.42196005153698    1.59564900329031
O           1.85584307784676   -0.64482633315492    1.45872307086550
H           2.22577188087937   -0.79041011315070    2.33091150547435
O          -1.95223965658712    1.94886066813996    2.87095069699861
H          -2.30254275903170    1.68266259883135    3.72405221750682
H          -1.28557341712849    1.27668577011035    2.61976360353094
O           0.76175464499005   -2.58726772527807   -0.22011471384532
H           1.39384730573753   -2.07950467363322    0.30780015148294
H          -0.08959937158601   -2.13208528883075   -0.09275161516420
O           0.05188790106798   -1.88424053060969   -2.67880170245067
H          -0.85961057327222   -1.83874524402685   -2.36525631473501
H           0.52068296702947   -2.31163610193662   -1.92540012549556
O           2.11245468079269    1.41885894951892   -0.30254412301192
H           1.46220748699747    0.84114241598770   -1.78537754984240
H           1.26113359916635    1.78956498976786   -0.02901430515786
H           2.26267048997542    0.67486584804761    0.30690898735421
N           0.57647130606145    0.66100496443915   -2.31639416355517
H           0.43414391361221   -0.38031529596080   -2.52888527703057
H           0.52802540983228    1.22481743437199   -3.15799854997157
H          -0.15473521354245    0.95925981970960   -1.60733696847251
