    26
        -50.46327886  Gyration_radius:  2.36777977961 Dipole_moment: 4.809
 S           1.13552161153895   -0.47226987529839   -0.78493440290856
O           0.89779707697887   -1.37404208834862   -1.90330601722095
O           0.96598551745326   -1.16500737397788    0.49572563895094
O           0.22971558070708    0.68396562733079   -0.84697605061425
O           2.57164005384137    0.05364636040466   -0.87049734099851
H           2.55872779687141    0.85000213315319   -0.21707892283393
H          -0.96629356675605    0.74905966071547    0.33520173780671
O          -1.68077327300130    0.62342202125367    0.99628519256198
H          -1.22536024501232    0.71812030012072    1.84241871640673
O           0.65385718824614    0.38391497212238    2.58619136122006
H           0.79093386068159   -0.23141134949168    1.82568934812500
H           0.89602172983910   -0.11212510207811    3.36967966904415
O          -2.09359871045737    0.57229740893592   -2.08255034070694
H          -1.17675271254631    0.76941245968060   -1.78180868991156
H          -2.66386701375896    0.84321497960962   -1.35640240189709
O          -1.53341776728579   -1.90883786126049   -1.98303289842606
H          -0.49876838316383   -1.78758155202880   -2.07408050488938
H          -1.89830623942525   -0.96613179393197   -2.15978452078207
O          -1.53028986162708   -1.97813602547917    0.50562861666798
H          -1.64574135942362   -2.05451789864056   -0.92662971184974
H          -0.55307514697477   -1.91096086616859    0.60365802026955
H          -1.84095118213170   -1.07919094444149    0.77532857601844
N           2.25063777400356    2.00883705793492    0.76090997382233
H           1.77966808616749    1.61576843454720    1.57410132266059
H           1.57364563678573    2.55811612359117    0.24709676168174
H           3.00304355833753    2.61043519154423    1.06916685789756
