    26
        -50.46576502  Gyration_radius:  2.4937844442 Dipole_moment: 1.859
 S           0.40458575464662    1.38298994964778    0.05136182484846
O          -0.04243312836694    0.87949628897179    1.35018204719494
O          -0.63355800745229    1.23896797989950   -0.94173414929688
O           1.66133269046701    0.73855917347457   -0.34346933367473
O           0.69128734933002    2.90921759124434    0.20654733172946
H           1.48630209270033    2.92117726241788    0.77301861328940
H           1.56361019285020   -0.86881390893223   -0.57310000797081
O           1.44989409442032   -1.84532438941648   -0.68466522614755
H           2.31067116313748   -2.19049555803748   -0.92689320589048
O          -2.91605959231822   -0.35366828621771   -1.44601390989731
H          -2.65227207322756    0.57077847878722   -1.53008464491624
H          -2.20712168270878   -0.82791537234539   -1.93854697519743
O          -0.54979452387547   -1.01851943128235   -2.44670390461527
H           0.08061026712225   -1.57436519299392   -1.96747897568193
H          -0.40693568148924   -0.12181698265011   -2.09505233613573
O           3.00859379453911    2.25540979273124    1.30630490837862
H           3.79204673450348    2.61420860175583    0.88343680656951
H           2.69981457536119    1.51611227050085    0.74286520732109
O           0.02954102680169   -1.97447967922040    1.63720320992437
H           0.30537402684433   -1.08018381281982    1.88421172763521
H          -1.55593427047202   -1.44885076130065    1.23149167067199
H           0.53079402606557   -2.17005575111266    0.82595830137331
N          -2.15758375637823   -0.60924205930408    1.05262137118562
H          -1.45594640454940    0.17804946860252    1.17258258537782
H          -2.90968106925469   -0.54119576965891    1.72956090534411
H          -2.52713758871485   -0.58003989273960    0.04639614857514
