    26
        -50.46292991  Gyration_radius:  2.50952788829 Dipole_moment: 3.635
 S          -1.81854885791350    0.28646072065411   -0.90620433571034
O          -1.82690457794200   -1.11544460604062   -0.48307396282041
O          -0.58752585740419    0.63450240248063   -1.58524716434646
O          -2.20278380423362    1.18721552366917    0.15575743030040
O          -2.95666288362405    0.40059982443176   -2.01188639773074
H          -3.74636348841496    0.51103534307865   -1.49241035714707
H          -1.23171622574936    1.35711229110688    1.44134233701093
O          -0.66541326082376    1.37298256603400    2.25191656041296
H          -1.18889809209087    1.80518852136578    2.92885107907220
O           2.03327563444351    0.92041978928093   -0.73489271090545
H           1.13228313388485    1.01074708921537   -1.08085082924974
H           2.06876783055526    1.48840744768202    0.05915587998805
O           1.87987900094196    2.17918990972860    1.67451854058959
H           2.41450401383391    1.71329754622105    2.31979737311429
H           0.95013056878970    1.97050363474776    1.88334880622566
O           2.00663636145118   -1.61895606914379   -0.07171827645531
H           1.07461833690002   -1.86378976232056   -1.15969716180106
H           2.21070673882615   -0.66888048448161   -0.28121015661994
O          -0.06137176432802   -1.25689936480456    1.57966716704395
H          -0.15614232454571   -0.39385703413762    2.00838484136533
H          -0.78934906787225   -1.30152205702682    0.93628011772296
H           1.37949249053973   -1.57917554852542    0.68600647258911
N           0.23709708414794   -1.81936747479368   -1.89641407885994
H           0.17760571444720   -0.83082919881597   -2.20340114023933
H          -0.65333236933688   -1.91146543823752   -1.35565210969485
H           0.32001567547923   -2.47747557145479   -2.66236796390964
