    26
        -50.46327887  Gyration_radius:  2.36782871145 Dipole_moment: 4.809
 S          -0.50857187136278    1.20550026408542   -0.64496562937497
O          -0.34121931337044    1.33036451968126    0.80596610488805
O          -1.91489965797815    1.27059260393417   -1.01713480329328
O           0.09449271489512   -0.05294330133436   -1.10726145142924
O           0.23648924665400    2.35845263866334   -1.32454440490457
H           1.22338040547982    2.08316690946056   -1.21669123442762
H           0.50529943593328   -1.15909182163278    0.09230429412512
O           0.59833164100099   -1.76325720327695    0.86025106962362
H           1.28737717900088   -1.34701457642776    1.39341802969244
O           1.97641691262069    0.55019235051645    1.74706081754741
H           2.11813738616446    0.97623773125619    2.59381752769892
H           1.09983474446810    0.87415815712739    1.42690918187511
O          -3.03458982194536   -0.81368301686294   -0.23930771373308
H          -2.51449845426335   -1.49429940773100   -0.80436388813503
H          -2.71226794186321    0.10747820678542   -0.61496701655131
O          -1.34381430032385   -2.22042090994728   -1.52075998291933
H          -0.86966584775535   -2.82811804721682   -0.94474563353744
H          -0.76764033837587   -1.42491892857611   -1.59168193969379
O          -1.63959503427159   -0.71376883488018    1.82045276542416
H          -0.87861858062731   -1.31513584868885    1.62928173980670
H          -1.26457786331307    0.17847894840068    1.64090334155261
H          -2.56271958957648   -0.83616614723220    0.72313104513648
N           2.59647394603347    1.41348127936583   -0.97142332007177
H           3.44151309585964    1.91367986175843   -1.21386553730578
H           2.53576370728482    0.57143941853074   -1.52942228368248
H           2.63916815959916    1.13559517424340    0.00763888170765
