    26
        -50.46215561  Gyration_radius:  2.39731268447 Dipole_moment: 4.881
 S           1.04052458120645   -1.23323579008348    0.17144665068310
O           0.34868440074246   -2.47813381475065    0.38674110758115
O           0.69440085307062   -0.25034244175816    1.22928216269169
O           0.74497800473691   -0.64152165550578   -1.13328537814055
O           2.56158066310295   -1.46588107125282    0.26642376830109
H           2.93649162530367   -0.58648228918275   -0.04696669166251
H          -0.78133721835960   -0.52242056815815   -1.50880252235682
O          -1.75945213690070   -0.43030052653709   -1.68232514634645
H          -1.86856829690988   -0.50990266288321   -2.63082632432017
O           0.53079807971616    2.26566833230254    0.52939641958650
H           0.58190685919630    2.74250716634049    1.36018521236655
H           0.68803010205433    1.31662810059306    0.75186760598662
O          -2.04557880501262    1.61065157272638    0.08829029628199
H          -1.14706281721935    2.00925337237715    0.11125164203638
H          -2.05989566272950    1.02085271696105   -0.68947571085877
O          -1.74231335719077   -0.17908838232516    1.82847180975683
H          -0.71617829699843   -0.24764895063912    1.72853158898596
H          -1.98773059777769    0.62233017290490    1.18907279198329
O          -2.24821433575142   -2.14959055254578    0.38282212263750
H          -2.08556468040585   -1.04970179035508    1.32446628654573
H          -2.32375610684942   -1.68847915311885   -0.47255938886052
H          -1.32422688696916   -2.49715147714180    0.40056395304784
N           3.05721290201303    0.87581587922007   -0.74349111300057
H           3.81178650730477    1.08393884586067   -1.38446036148540
H           2.88076055996137    1.69737278333706   -0.17911826848586
H           2.21272411066605    0.68486220361614   -1.27750250295474
