    26
        -50.46327888  Gyration_radius:  2.36776741628 Dipole_moment: 4.811
 S          -0.18131640293929    0.61867923974356   -1.30873061461198
O           0.19738127841056    1.56009506408669   -0.25082653382547
O          -1.53116973703198    0.88353929667567   -1.78645252892082
O          -0.06659770060601   -0.75957650837883   -0.81031276120253
O           0.79651367721875    0.77635478421494   -2.47712430417471
H           1.65230454063030    0.33083173598653   -2.11563663642029
H           0.12355890618098   -0.92945879414472    0.85323509937170
O           0.11790538447122   -0.90960347164850    1.83448519903586
H           0.96389021378008   -0.50102519657571    2.05736682638058
O           2.25224241574786    0.84921933632914    1.21144538364309
H           2.62592764334912    1.63589923226333    1.61154995984839
H           1.48865092830529    1.16115822642822    0.66790092384326
O          -2.15197948960540   -2.09991035148068    0.07982268957393
H          -1.36912490045338   -1.76245603380268   -0.41323219036965
H          -1.82374207938919   -2.32489271324845    0.95592966190996
O          -3.14135857936380    0.24428738749136    0.00293344974360
H          -2.59614080534876    0.56213488208497   -0.83081550993096
H          -2.93633099737929   -0.76005659653313    0.05066679157629
O          -1.53872777332186    1.15493035125208    1.67633996532854
H          -2.58334669599882    0.67833057283175    0.80927030333263
H          -1.03521361931795    0.36329387559759    1.98801133891849
H          -0.92822725534125    1.55757532699804    1.01734678514793
N           2.76480000440244   -0.43354299443244   -1.35970274701463
H           2.84109168631604   -0.03306837902555   -0.42618899376931
H           3.68664363294755   -0.50105842337798   -1.77048468487251
H           2.37236574434303   -1.36167983930259   -1.26679688250220
