    26
        -50.46576502  Gyration_radius:  2.49386478504 Dipole_moment: 1.859
 S           0.82827862392171    0.12699489151918    1.17305158869880
O           1.60169872482321   -0.17712614429867   -0.03093880943277
O          -0.16865511721168   -0.88907862968293    1.41488127323579
O           0.25641273042107    1.47472487407557    1.08847517948279
O           1.81105883601794    0.11212777481931    2.38535413456344
H           2.35879801656277    0.90454161716638    2.22666252344146
H          -0.81636668757252    1.68755568632427   -0.11574195845475
O          -1.44928436081987    1.76446982364542   -0.87233119200421
H          -1.76439243924443    2.66970722327590   -0.86844125703439
O           2.57315866576761    2.54208209058475    1.66357876430645
H           1.67472653978002    2.36944634693735    1.31368423641712
H           2.48142218741133    3.22758788473053    2.32918608371203
O          -1.64984700042292   -2.82788884060384   -0.01601796513466
H          -1.19591113556455   -2.75295232741186    0.83225077512227
H          -2.25810305110880   -2.05325138048433   -0.00647502322986
O          -2.64432874015526   -0.40521960018604    0.41290287408271
H          -1.85143557552856   -0.43156302766218    0.97755334861146
H          -2.49184205687213    0.33469870633688   -0.19147109132549
O           0.29833763795085    0.46014447867427   -2.50622473141330
H          -0.44271973519404    0.96776268548541   -2.13098236674348
H           1.01376898246430    0.56182375720409   -1.86226644520526
H           0.10940124105698   -1.20785855191164   -2.13704872183036
N           0.36416273730933   -1.96700687349857   -1.46049618615869
H          -0.49232947168160   -2.36199426767909   -0.95030233938187
H           0.95176739616201   -1.43035196241621   -0.75818530564232
H           0.90222305184578   -2.69937620491480   -1.91065738867718
