    26
        -50.46576501  Gyration_radius:  2.49386014 Dipole_moment: 1.852
 S           0.61462295323617    1.26955669132742   -0.29788481719687
O           0.13431351570059    0.58335151253878   -1.49739470628057
O           1.56229927984795    0.44972871200731    0.41946793650707
O          -0.51402987272183    1.69482145454437    0.53626373494304
O           1.36735960807681    2.55741984180831   -0.75661655029249
H           0.64475588299414    3.11700227929706   -1.09969598304251
H          -1.42047078514555    0.48272507824187    1.13291464730545
O          -1.94436937644172   -0.29209216536544    1.45550649206796
H          -2.66413801495334    0.06791103069140    1.97617009204291
O           2.23031223925830   -2.28106753724499    0.74214622808491
H           2.68878798140492   -1.43665712065936    0.65370314324196
H           1.61431991121587   -2.11701784115134    1.49297628919832
O          -0.99881986974737    3.70304848115244   -1.06703784428815
H          -1.14368885890418    4.51256485188949   -0.57200732086501
H          -1.07983426349126    2.96543711332242   -0.42777390498603
O           0.55238508910612   -1.08683800248915    2.41560631444208
H           0.92077982820742   -0.35074860340251    1.89533283973077
H          -0.40143762608182   -1.04627543468718    2.25862264119898
O          -1.87975337569771   -1.40484521021026   -1.03129003257922
H          -2.06334333983954   -1.18464445707828   -0.10104717091196
H          -1.56485760516584   -0.57623080660584   -1.42012025373817
H          -0.33002951062109   -2.13676891589500   -1.16541307987451
N           0.68544346494074   -1.95725710323142   -1.35377444670932
H           0.99918902590763   -2.44320030162860   -2.18681968584807
H           1.30277121030942   -2.18455243898949   -0.50696145566310
H           0.68743251860439   -0.90537110819151   -1.49487309647987
