    26
        -50.47136199  Gyration_radius:  2.44278147026 Dipole_moment: 2.080
 S           1.51908003171695   -1.30816346830343    0.53620502394103
O           1.91497000299803   -0.57900415827337   -0.63592201012036
O           0.35913812622134   -2.17034143870279    0.30687829251868
O           1.31270094748975   -0.46488654403560    1.70784728877683
O           2.70933546909021   -2.28390073038286    0.90591373301659
H           2.34390788798878   -2.73901269226320    1.65641511339622
H           0.96645687371938    1.07226984032306    1.38745118788847
O           0.70921534879523    2.01659121002350    1.21870067244532
H           1.15326682499695    2.53347885223595    1.89235095773057
O          -1.42492612228190   -0.95980019587815    1.84059924958410
H          -0.86462117260620   -1.49385517668113    1.24100972784201
H          -0.80577954774145   -0.65095413869571    2.50881381246668
O          -1.90437778078064    1.37263879837576    0.63228869671568
H          -1.07870643412700    1.79674058918053    0.92330942850487
H          -1.90285601863537    0.49682860394515    1.08370465362930
O          -1.00203513624082   -1.78304237889287   -1.89267833430141
H          -0.37480948534532   -1.95168458257181   -1.15033305557288
H          -1.78320768090365   -2.30041344961414   -1.68596715106206
O           1.23372812034314    1.82614231302479   -1.47412482442699
H          -0.20025142077416    1.30067705900345   -1.83105972500953
H           1.11716594152784    2.17210197597346   -0.57249311398707
H           1.66218833440198    0.95746983604111   -1.32884806522396
N          -1.18953933863614    0.89109635774635   -1.84428763802102
H          -1.74375234639694    1.29759148618716   -2.58908435347835
H          -1.60632084310657    1.10221177641229   -0.88274377267628
H          -1.11997055171381   -0.15077975417725   -1.95394577457901
