    26
        -50.45462896  Gyration_radius:  2.52291139755 Dipole_moment: 3.160
 S           0.46364779545610    1.78278754269649   -1.77953904109666
O           1.35595695662199    2.00315687492977   -0.64099156189208
O          -0.91483390142074    1.63428693427334   -1.36603714600291
O           0.94401892220811    0.70415192233752   -2.62152383775456
O           0.53425661386770    3.09852881301433   -2.65121448854212
H           1.43517994196980    3.06320981775159   -2.95310613682626
H           1.22503673621088   -0.58001014277537   -1.73099863201912
O           1.31193634434779   -1.40106148331840   -1.17721854612560
H           1.90786447941042   -1.97853286241986   -1.65684365523139
O           0.71817934977555    1.26577115590537    1.65691039161794
H           1.03561727022618    1.63907189246554    0.74386985236431
H          -0.30811658619443    1.22779989913281    1.57251873079987
O          -1.40096719776925   -0.97653410091211   -0.72587126004087
H          -0.53984261872278   -1.37141426542066   -0.92687257500395
H          -1.38267388113016   -0.12001910645438   -1.18641814236646
O          -1.75496407747665    1.08476945378879    1.10049267578738
H          -1.67681415720441    1.60310973290234    0.27703170865649
H          -1.84058976931046    0.17574314863126    0.76679711211361
O           1.32939950830978   -1.13929801950625    1.51907211963239
H           1.05046196360660    0.24087910737781    1.66687904732663
H           0.47459148539774   -1.59696524706951    1.75168377438486
H           1.44386416388486   -1.26525749379059    0.55588836012942
N          -1.09554326702595   -2.18829300904646    1.95570486982677
H          -1.65410976348028   -1.68303468394209    2.63221379925491
H          -1.15089157849234   -3.17342825379007    2.17900066020497
H          -1.51066474306657   -2.04941763676043    1.03857190080430
