    26
        -50.45462909  Gyration_radius:  2.52288673665 Dipole_moment: 3.156
 S           2.45086872239939   -0.71470322108303   -0.20617744449808
O           1.97162100599632   -0.45034219878730    1.13300199028406
O           2.20596396609262    0.41158070790389   -1.10765674614000
O           1.95883716659976   -1.95606816112914   -0.77187703253156
O           4.02076017817857   -0.85887450323714   -0.10362206871404
H           4.23334421072391   -1.11974978146655   -0.99278468315644
H           0.44670934752883   -1.77353176700751   -1.22003438773442
O          -0.52309834306924   -1.67224757916273   -1.41395033335022
H          -0.73543459514327   -2.35600861473236   -2.05113883674516
O           0.23279610468702    1.44525376273764    1.82294909695556
H           1.08358118026486    0.96676349571540    1.82998172648215
H          -0.41416930162650    0.71958824921418    1.82094187576425
O           0.40490903411874    2.07338297233015   -0.63358804774448
H           0.29689609735478    1.95947908043783    0.38481244662068
H           1.19787331859129    1.45215187683385   -0.87704686219004
O          -0.66795271761704   -1.13075461195120    1.31158123176256
H           0.30050721103316   -1.13103404403774    1.40218044576239
H          -0.82182631140855   -1.47606796685467    0.41996417048626
O          -1.56466842566158    0.82720734023771   -1.49687973914961
H          -0.45875170689740    1.60457607559424   -1.07505463341170
H          -1.20731358057533   -0.07836432027381   -1.59107831203897
H          -2.17028103198990    0.79770308114641   -0.70531749444363
N          -2.95904663536914    0.66460554802512    0.78369890588579
H          -2.89907557445796    1.48765963414804    1.37014917067808
H          -2.45098740015627   -0.08637042713107    1.24267207854723
H          -3.93206191959911    0.39416539253132    0.72427349261953
