    26
        -50.46361861  Gyration_radius:  2.41429356137 Dipole_moment: 7.901
 S           1.04722271931494   -0.52353406925859   -0.02113640166115
O           1.09717010290981    0.89989851153990    0.29112800796396
O          -0.34685561524328   -0.98971703125863   -0.08471448803626
O           1.70757945478035   -0.78151669229015   -1.37771315527373
O           1.80324197786143   -1.28165064192296    0.97511989943384
O          -0.48780672833426   -2.65975926285546   -2.23193739322020
H          -0.54768150096813   -2.17792093924334   -1.38766725840931
H           0.32686808626036   -3.16383375379728   -2.19165476143232
O          -0.95302205817840    2.47465990837895    0.53215587875668
H          -0.13787412645139    1.93116895237078    0.38721859248346
H          -0.69935069949515    3.38724382670644    0.38994742340111
O          -1.28821940146339    0.21107338392761    2.09014464960159
H          -1.09596756772972   -0.36102440869108    1.31524600846181
H          -1.47127601473085    1.08575972132381    1.71046501202794
O          -1.79029931579540    0.78669237225216   -1.53568892037809
H          -1.46313302175385    0.05194230118367   -0.98880927757233
H          -1.71771189144042    1.56831932618636   -0.97025407631556
O           0.06662413134865   -0.17570238044269   -3.19962286476985
H          -0.64709379503555    0.34215447834952   -2.76476019511686
H           1.09685432657666   -0.45938672869350   -2.14712262654342
H          -0.28040925218291   -1.08722364018352   -3.23821124496444
N           1.16969177879076    0.19564139810180    2.93624428338745
H           1.53971224818166   -0.50714364129405    2.17581783339993
H           1.59066246807488    1.09708594046910    2.72592258865818
H           0.10788213322388    0.24425079074243    2.72644157233756
H           1.37319155150620   -0.10747770160295    3.88344092379560
