    26
        -50.47136193  Gyration_radius:  2.44275270439 Dipole_moment: 2.080
 S          -0.80249413239504    1.91230487621709   -0.07716778171717
O          -0.17575065733144    1.72704270952684   -1.38645696291813
O           0.13497523711702    1.83615899395911    1.00803387751157
O          -1.94926083798080    1.02487874394343    0.07689051463294
O          -1.38812890051731    3.38276332527446   -0.08889959672597
H          -1.95842358556256    3.34440827360245   -0.84851771074757
H          -1.70058115710475   -0.24856063167286    1.02655712977332
O          -1.56234500353868   -1.06602779681486    1.57338705837900
H          -2.38072946164029   -1.20190704964532    2.05290445710511
O           2.26385163100999    0.78474653037947   -1.42191367184831
H           1.39801841495649    1.24763517338184   -1.32709486132076
H           2.33289062323438    0.56604292306311   -2.35359583495347
O          -1.26720424168494   -0.57569097729028   -2.09814543987763
H          -2.10872732472102   -0.44294426812700   -1.65157474654688
H          -0.79650920842473    0.27042297048572   -1.95239772868541
O          -0.21407120082374   -2.38161009190975   -0.43688732006410
H          -0.55795984030813   -1.82885089566022   -1.17649924762160
H          -0.76340942614674   -2.13377370564449    0.32670328856505
O           0.88463010737178   -0.21092419366812    2.49114302926045
H           0.71419981752140    0.67784868112582    2.11667825776055
H           0.02057584873035   -0.65247794626172    2.42239158308726
H           1.67527638093542   -0.80775491847295    1.27539701213596
N           2.00290654975182   -1.21756660626563    0.34188846686696
H           2.19241824815323   -0.42772906273956   -0.32340463693578
H           1.17833439189258   -1.78464434406102   -0.03406629158858
H           2.82751773750742   -1.79379071272629    0.46464715647470
