    26
        -50.46824846  Gyration_radius:  2.38815101979 Dipole_moment: 4.288
 S           0.78451833447844    1.00857253705498   -0.19769636576684
O           0.88630344342882    0.28551163857687    1.07867097834153
O           0.08852774732465    2.26356525101043   -0.07847488981893
O          -0.05875484844598    0.06902007248779   -1.13799558737368
O           2.08740667322825    1.08341870361335   -0.84490822416472
H           2.63293012841641   -0.23465084792538   -0.49591580926264
H          -0.98043202225350    0.00003841565064   -0.71853276502928
O          -2.33029238034553    0.02136534056159    0.04128628314029
H          -2.71054309060370    0.76676712823069   -0.45723135097611
O          -0.45387164002745   -2.05179080597805    1.00839614191340
H           0.01397522126926   -1.20808515267353    1.16676655050749
H          -1.37260285566493   -1.80958822418005    0.85630816182763
O           0.86950260172643   -2.56879934254115   -1.22071935510869
H           0.49044163954264   -1.83347910233222   -1.71993561380380
H           0.30907330406758   -2.61868205690175   -0.40713560274094
O          -2.36208783540546    2.44368673482770   -1.13425824988047
H          -2.29671034378809    2.80342032718780   -2.01935532296789
H          -1.46076581125093    2.49295693828089   -0.75420292247194
O          -1.34102630010124    1.28596834688498    2.15615319189281
H          -1.33874478294266    2.19971793563506    1.85693520020683
H          -2.11756028346074    0.41468771874083    0.92402402631169
H          -0.44448798473863    0.95634642382405    1.95710440057369
N           2.78764221502328   -1.22716174205366   -0.06624722415007
H           2.44814257408642   -1.11735927550277    0.89254433913619
H           3.75446808611378   -1.53363406963871   -0.10060702976396
H           2.11494820033842   -1.89181289283199   -0.58497295058045
