    26
        -50.45462901  Gyration_radius:  2.52290701195 Dipole_moment: 3.158
 S          -1.86589695688643   -0.78600420944720    1.56891436072337
O          -2.13362722687869    0.41417714776194    0.80662911676810
O          -0.61768631909077   -0.68667081676513    2.32605750892230
O          -1.90654506310826   -2.00331361174326    0.78173459732210
O          -3.01923811025035   -0.90602544843915    2.64193705830765
H          -2.81819207910820   -1.75297138112024    3.02448992883523
H          -0.58373901082141   -2.11780147907102   -0.08887930863094
O           0.20563926001652   -2.13252015657963   -0.69306780022985
H           0.32048022770904   -3.04829244979860   -0.95155092131410
O           1.18874750951362    0.88925281798821    1.63028687886075
H           0.64957371750420    1.57499545218049    1.08169803337937
H           0.47134042330806    0.24367041327213    2.00753220366780
O          -0.87783190667095    0.25896362221399   -1.61447200209836
H          -0.48246165805567   -0.62293424754584   -1.55248285425391
H          -1.55678595636700    0.26424907246994   -0.91801151156180
O          -0.35850525211375    2.30187923570443    0.19188233006231
H          -0.32598453601348    1.85583666160584   -0.67130662504456
H          -1.17208196539706    1.93417915624120    0.58645508276741
O           2.26691124089226   -0.45794661965822   -0.15847672686234
H           2.21850623513378    0.14799586631555   -0.94889520359389
H           1.73699370716203    0.30339776694420    0.91124134069578
H           1.59996597195962   -1.15538568037412   -0.31797631642573
N           1.85849283370329    1.21398688821596   -2.21015168443914
H           0.87886523462170    1.01996191864017   -2.39831824360779
H           2.37939234609687    1.05278695321220   -3.06225728175249
H           1.94366732314087    2.19453313777362   -1.97301196049510
