    26
        -50.45693106  Gyration_radius:  2.51245968853 Dipole_moment: 5.080
 S          -1.00548973995225    1.34741784569544   -1.50356412752400
O          -1.44785423851847   -0.04735947804018   -1.43565191369615
O           0.27218158132525    1.47168813706158   -2.17602958187834
O          -1.05584307684708    1.98660721476213   -0.20783733030437
O          -2.05805641896293    2.10134538203605   -2.42031218892908
H          -2.81999214565118    2.23399227663556   -1.86249062319819
H           0.43799076725327    1.69260013126366    0.35377771936357
O           1.35163384161071    1.47796245438956    0.65955768767510
H           1.91565851186983    2.14123696246258    0.25856259707478
O           0.18243171455101   -2.18284988260345    1.83195526176058
H          -0.63591936028751   -1.67685388632776    1.57024778715643
H          -0.10070730978007   -3.07860334149850    2.01347224445017
O          -1.85649016026386   -0.67185687802198    1.17167924649470
H          -1.56922670728351    0.07533517431051    1.72357298507922
H          -1.78976060332193   -0.38152368682989    0.24575537447385
O          -0.11073061021192    0.59023152231754    2.94573870874940
H           0.46891336633646    1.06272739544757    2.33597299398120
H           0.23574207811385   -0.30607664546752    3.00507577762792
O           2.04020676333463   -1.11108678755003    0.24610997350341
H           1.45291023565825   -1.59640884155114    0.86522880380685
H           1.41722610648878   -1.17401412583077   -1.12088679088613
H           1.91381893504632   -0.16574346329349    0.46948907250634
N           0.85731152388245   -1.03460862361188   -2.04539131033971
H           1.12646797139189   -1.67408273221426   -2.78430512423149
H           0.94217189697129   -0.02217638495386   -2.31588880265594
H          -0.16459492276376   -1.05789972859848   -1.82383846005251
