    26
        -50.44079375  Gyration_radius:  2.58744997273 Dipole_moment: 5.369
 S          -0.03131270288032   -0.81544493692086    1.66959884239924
O           0.87985899930825    0.12892591988247    2.21631011052786
O           0.29653685601156   -1.34836601165991    0.37848019323000
O          -1.46652419070736   -0.20406788161689    1.58540642660507
O          -0.25653477982646   -1.96040166705400    2.67601667425424
H          -0.96875469754552   -2.50747790404755    2.26800803111210
H          -1.44018963003553    0.59299809596020    0.94327848957646
O          -1.35777316707318    1.61663473897146   -0.16251441802908
H          -2.20482852225511    2.02239412383586   -0.35918022500975
O          -2.38209547026220   -2.81371016344984    1.43434802692324
H          -2.45751293617584   -1.90707313546923    1.11090860879757
H          -3.15373294343514   -2.99130928161381    1.97878900730165
O           1.28375723986684    2.40915246193690    0.68182259186131
H           1.28650653850047    1.75969381929783    1.39893471604768
H           0.38415486018290    2.40266333857574    0.33606241437856
O           1.18087016724217    0.62625487130164   -3.23210543791881
H           1.21018577163589    1.57284931374583   -3.37913721568845
H           1.77600215713694    0.45359543482675   -2.44766031575151
O          -0.89957322256445   -0.22814370580855   -1.83372255441084
H          -0.19403884690318    0.04520389908280   -2.47370957644574
H          -0.45784191783210   -0.83246399283430   -1.21552646611871
H          -1.17265392691312    0.94470865295646   -0.91891347837521
N           2.47140836453629    0.27857277785861   -0.93620195368159
H           2.29531554794205    1.14703813228916   -0.43076782098374
H           3.45001780285598    0.04878408042529   -0.82102764583049
H           1.92875264919622   -0.44101098047060   -0.46749702476351
