    26
        -50.45462896  Gyration_radius:  2.52291341246 Dipole_moment: 3.160
 S           1.77980974978648   -1.63357704587196    0.85090889742137
O           1.09800863829322   -0.84869227592630    1.85704552192693
O           2.36533616171041   -0.79380081221312   -0.19456953582076
O           0.96780134114143   -2.69129397012790    0.28081026530698
O           2.99346296587644   -2.33977445211708    1.57498568407698
H           3.31765351855147   -2.89652598249037    0.87570368437803
H          -0.07504260009021   -2.06823496399021   -0.74159877838190
O          -0.77953959509443   -1.65713583812441   -1.30995529938090
H          -1.07895421070445   -2.35138773290820   -1.89902756711728
O           0.30953373862477    1.68155384697431    1.59498688147040
H          -0.56365623607677    1.29132761672881    1.42076040031981
H           0.79792405372778    0.93348672231877    1.98827658487848
O          -1.47312334124394   -0.37908270305122    1.06249636000173
H          -1.49201495492649   -0.86741789158342    0.22639030487559
H          -0.69198508766092   -0.72917469342819    1.52434924291259
O           1.48322869248130    1.49615797045780   -0.65152068545996
H           1.93295446980320    0.57596517167727   -0.49416059447510
H           1.03336497787960    1.71608775713172    0.24910118210806
O          -0.47449816216868    0.92456914316834   -2.07193395713528
H          -0.56449578174420   -0.03698369802424   -1.91703805539231
H          -1.23248839665056    1.34915510282136   -1.58259440395722
H           0.67941445206048    1.29648774999493   -1.34064417938951
N          -2.40150042332753    1.94410930540773   -0.51674988153289
H          -2.14927677723484    2.80616180620623   -0.04963757015946
H          -2.46146393322141    1.21189395234338    0.18539111576510
H          -3.32045327978794    2.06612591462567   -0.92177559723627
