    26
        -50.46296652  Gyration_radius:  2.50178772107 Dipole_moment: 5.087
 S           0.44087056087618   -0.22435605678034    0.54991635899027
O           1.87670137270313   -0.13718724286982    0.62003706833218
O          -0.16927021642672   -0.95340224673889    1.66340385080818
O          -0.19338223891357    1.09215211215426    0.39883010118359
O           0.02168414711621   -1.05117679304748   -0.70480051188805
O          -1.81312301982871    1.18764382681280    2.61078625639692
H          -1.11454601734044    1.28868179037011    1.94313209642704
H          -1.48291392092091    0.51227473816255    3.20630806360282
O          -2.83837517130264    1.06621162466291    0.03768661491161
H          -1.87742976324697    1.23162590263766   -0.07243126052358
H          -3.02883835905090    1.42827403180834    0.91492162791415
O           3.47511382843953   -1.26870997669928   -1.18339105699198
H           2.92911165794306   -0.94592290936904   -0.43703321374076
H           4.38354649084221   -1.05602815842102   -0.96477559153235
O           1.76538846685816    2.05511322464135   -1.14014258969941
H           0.97179488442966    1.89372308962467   -0.59737086854417
H           2.49598240370918    1.78941985587208   -0.57421302599643
O           1.44185887035151   -0.16770809488244   -2.59132894002851
H           1.57744279603061    0.75383601550540   -2.27160240311868
H           2.26675311028446   -0.64200438913119   -2.37531511866510
H           0.55906496919505   -0.72050458588763   -1.52121512391481
N          -2.37262061925592   -1.45543299926812    0.49887640463526
H          -2.71637575253956   -0.45482326516670    0.27799376271911
H          -3.07297024065394   -2.01363260458994    0.97678680263360
H          -2.05912239839408   -1.89664983899144   -0.36429762193877
H          -1.46634584090433   -1.31141704041595    1.09923830802287
