    26
        -50.45693096  Gyration_radius:  2.51222837295 Dipole_moment: 5.078
 S          -1.03324604310409    0.31249057682036   -1.97942038600516
O          -0.23201243816824   -0.76996080931741   -2.51476081157810
O          -0.19815912348329    1.40161783521283   -1.46770332606528
O          -2.01838410321773   -0.10643181273244   -1.00778450800008
O          -1.83805040497699    0.91127730934701   -3.20846090216259
H          -2.53663344619752    1.42833724326713   -2.81603302699425
H          -1.21833846699080   -1.28257853600091   -0.22642648972954
O          -0.68845807081925   -1.98009022914854    0.22855431985368
H          -0.76992302834700   -2.76023288298265   -0.32246993851789
O           1.14206085425472    0.78518851272199    2.49673226047335
H           1.62956001603569    1.46954312384681    2.95442261553748
H           0.41929963311896    1.24694128774946    1.98822628667055
O          -0.85097838283638    1.80723125744165    1.13302914070222
H          -0.71264554698357    1.69480201733841    0.17682781961855
H          -1.48182327647407    1.12107031563913    1.40982175256106
O          -1.56633629312086   -0.50982205590854    2.51457748991302
H          -0.71018874969457   -0.34779278138432    2.92409806925059
H          -1.41883128232099   -1.18515100837002    1.84140094551776
O           1.83070528161535   -1.18527467578604    0.83601535571676
H           0.94941410786800   -1.58893483719187    0.69452144938268
H           2.04535156422756   -0.48447486239522   -0.47668600051894
H           1.68528154342202   -0.49848351413314    1.52228701370347
N           1.97721190412087    0.01337408991859   -1.44377892303627
H           2.87741513426292    0.18944038368625   -1.87507438944123
H           1.38968143553201    0.87199361198864   -1.33655895825708
H           1.32802719227382   -0.55407957962906   -2.04535683859123
