    26
        -50.45693085  Gyration_radius:  2.51266015952 Dipole_moment: 5.076
 S          -0.80734556877109    2.02675690704010    0.57254162311734
O           0.23441459222456    2.62018948679762   -0.24153907063251
O          -0.25051904757287    1.18820948501586    1.63666886282293
O          -1.82118440682477    1.32636288763466   -0.18351438630316
O          -1.53877579208252    3.23387829903717    1.29716069460500
H          -2.36256918838151    2.86922183613808    1.60980770424024
H          -0.93489545506806    0.65963720361774   -1.36811788397751
O          -0.35425559257989    0.26325623730823   -2.06095692213649
H          -0.22899513642005    0.95462116200701   -2.71298852384709
O          -1.76303419010397   -2.08638211939272   -1.25791126722002
H          -1.00947771129455   -2.65297364891997   -1.06285912029938
H          -1.41207240278661   -1.33025817226591   -1.74392308210354
O          -1.29551203883342   -1.30098364702041    1.37924530155496
H          -1.82581674869382   -1.33736822749602    0.56511537263955
H          -1.01712471091968   -0.37607089881153    1.49405578542590
O           0.65465869406837   -2.75151978070046    0.39478164551828
H          -0.06720096289390   -2.22943014100512    0.84257551199436
H           0.95178928165085   -3.40170165299120    1.03074929671600
O           1.88732064578752   -0.88279010243398   -1.05526283308205
H           1.53591129357020   -1.65340413060122   -0.55869376270120
H           1.11652987470296   -0.52673722844291   -1.54369977824780
H           2.14325513098407    0.22202372013806   -0.06794632331803
N           2.11396890063593    1.07567638031199    0.60882124617901
H           1.65787874540416    1.87084265742584    0.09403342356246
H           3.01720774992699    1.31424697891695    1.00207329767236
H           1.37584405427282    0.90469650870438    1.32978320783065
