    26
        -50.45693087  Gyration_radius:  2.51214810466 Dipole_moment: 5.079
 S          -2.09444893435413   -0.45472863262433    0.69951697657421
O          -1.94127222724344    0.41263339445750   -0.47068170306783
O          -1.78409466524977    0.24622670217295    1.92951203374843
O          -1.38356946979987   -1.70291408456970    0.53566849010174
O          -3.63589757593250   -0.82108188308875    0.78074887512365
H          -3.76430721873096   -1.49257092248451    0.11595137090109
H           0.06036248235423   -1.33632485744532    1.18005655188004
O           0.92554571144392   -1.06305700372804    1.56854132052123
H           0.81400908203934   -1.14338052527045    2.51717856626668
O          -0.17418250397555   -0.76379684929618   -2.15853210156592
H          -0.87156393663824   -0.42197128814880   -1.57296231455294
H           0.19392019463113   -1.55402337709978   -1.72794666844320
O           2.03296383218562    0.62910554575079   -1.90483443579614
H           2.23139419355662    1.10513362760952   -2.71077460678259
H           1.17758217747557    0.14352787639878   -2.06839652338549
O           1.86000183183329   -2.18890560686928   -0.88508807993669
H           1.66788109388810   -2.00693199166061    0.04272944492429
H           2.37566053017537   -1.44103807885635   -1.20409706613956
O           1.80006247969683    1.33514428985850    0.65672934601240
H           0.44370939119317    1.98024532737692    0.72512990415160
H           1.61288154252873    0.45652619849878    1.04738883902177
H           1.99822478213003    1.15347193259418   -0.28746998153999
N          -0.61402861001797    2.23607853743629    0.78400616643605
H          -1.03517217824015    1.65947964591573    1.55587676100853
H          -1.10823675783361    1.80317261558982   -0.02966549925001
H          -0.78742524711225    3.22997937747542    0.88141433380935
