    26
        -50.46296664  Gyration_radius:  2.50141334829 Dipole_moment: 5.091
 S          -0.22061239441446    0.29662650239317    0.64090540349479
O          -0.90350628455553   -0.74811543611223   -0.13392061355709
O           0.11104882041746   -0.13670000573612    1.97374362607702
O           1.08365449894855    0.63341582744921   -0.14580258301593
O          -0.98588849340454    1.54378570548120    0.59061225736068
O           2.61922214583969   -0.29036140716312    2.85266910690991
H           2.60993884469765   -0.63934566916655    3.74508642663588
H           1.68407928260935   -0.12921325243475    2.60994619595725
O          -3.26736908185379    0.48776001438743   -0.77459772717076
H          -3.34889311108942    1.22771973779778   -0.16995641707603
H          -2.55257900908936   -0.05525965829839   -0.40282737413927
O           0.50865228748807   -2.73171530526704    0.96406292384033
H           0.38225273112674   -2.46638130878865    1.87964117019562
H          -0.10406641319342   -2.16200184122462    0.46369862424151
O          -1.37336341848268   -0.15868400855111   -2.69424055342361
H          -2.32980210321763   -0.07711494147278   -2.56999967846505
H          -1.07498368127454   -0.60412761781249   -1.87222609049117
O           2.66053423561849   -1.27495867519926    0.33145200871487
H           2.00300892934349   -1.99172990749754    0.48548635393662
H           1.76731979704049   -0.12638732842650   -0.00520448073572
H           2.95087985092119   -0.99283455389561    1.21934325010778
N          -0.44173251775346    2.11448747761350   -1.82628029090156
H          -0.82716979908362    1.23994794621367   -2.33099965724099
H          -0.79015422701810    2.98127419279546   -2.22347311614885
H          -0.73682693973818    1.98254826021217   -0.77837500090436
H           0.57635607014304    2.07736522269810   -1.82874376420235
