    26
        -50.45677439  Gyration_radius:  2.47303046206 Dipole_moment: 3.909
 S           0.55311077113367    1.13051135813444   -1.12414518980271
O           1.37924389822537   -0.04783975292485   -0.97066565814217
O           1.11186429847067    2.30753658485694   -0.52999823183589
O          -0.83438591328994    0.83690642546972   -0.50775814718727
O           0.22015672886323    1.37518276012589   -2.57969922573784
H          -0.50648854277548    0.67359729750335   -2.84706936541971
H          -0.76403801922220    0.76173605129731    0.52999686412457
O          -0.51354521740348    0.66282078601170    1.97168330764670
H          -0.12234358029169    1.53916579142838    2.18791118518986
O          -0.18371448455715   -2.13205290225316   -1.72343375251605
H          -0.56787499225993   -2.31605676158444   -0.83399384338939
H           0.56558647867860   -1.54095699493427   -1.54662913644643
O          -1.55059124933892   -0.34394824385629   -2.97561459766184
H          -1.08267167413314   -1.15104415902155   -2.59322383399628
H          -2.20769885267037   -0.08783206070782   -2.32231986993299
O           0.84494772126748    2.94332812223487    2.04383166258893
H           0.49989867112991    3.83593637553129    2.09933786601927
H           1.07382879605076    2.79810978597988    1.10354761137783
O           1.65611990099362   -0.84035757135741    1.54562250143775
H           1.64409715283588   -0.62793909212995    0.58743700671349
H           2.49281545057420   -0.51294054600024    1.88119122285368
H           0.24449970932092    0.03742469837099    1.99986250393269
N          -0.97336155856471   -2.33826234984853    0.87697564846475
H          -1.38991879603174   -3.18091200748891    1.25234777444896
H          -1.53361846584412   -1.55007856151781    1.17844140014027
H          -0.05591821116047   -2.23203504332691    1.29636430713840
