    26
        -50.45677431  Gyration_radius:  2.4729140018 Dipole_moment: 3.906
 S           1.58940021310462   -0.55743246586726    0.11624572176875
O           0.89951133731352   -0.37832364071664    1.37588569830570
O           2.57340109103571    0.44835888307267   -0.14999124111840
O           0.53750205240127   -0.57835635692357   -1.01718059055134
O           2.20023925401377   -1.93846890074539    0.02236933396949
H           1.41732956565345   -2.60491599999407   -0.16567031886728
H           0.11298541867508    0.36609928730060   -1.13778705748264
O          -0.40788661297344    1.73724147087336   -1.18188664805595
H           0.39869521381236    2.27336039596805   -1.35391293689626
O          -1.19362140389946   -2.10034224047716    1.30393089190143
H          -0.45889729470533   -1.53229894762427    1.58613739604295
H          -1.84019344830227   -1.48031822873919    0.89151113180028
O           0.18957903909962   -3.33369538912040   -0.48438068974128
H          -0.11647983816250   -2.92976859192064   -1.30130684529889
H          -0.42838714021115   -2.99658920955019    0.23757077316246
O           2.01863085193316    2.81494664048049   -1.24156192765208
H           2.59320380879136    2.93986382512799   -1.99865748273471
H           2.34781829504906    2.01809046738330   -0.77868486801540
O          -0.58666819805146    1.81639310346864    1.48459715616536
H          -0.09211530866759    2.50074671876228    1.93945931311191
H          -0.61944214632934    1.90144183685514   -0.23588692573622
H          -0.05586161375649    0.99497255225598    1.56740908730514
N          -2.67089392469628   -0.09001844829609    0.20684281113243
H          -3.68301535941528   -0.09545032238991    0.21302360619417
H          -2.36430822533662    0.15571951027385   -0.72677996476929
H          -2.36052559635637    0.64874404057382    0.82870455606455
