    26
        -50.45677415  Gyration_radius:  2.4730642086 Dipole_moment: 3.900
 S           1.12387851744976   -0.49385532941221   -1.15584809170566
O           0.89094002020066   -1.43269207614901   -0.07930168024928
O           2.37877436648623    0.18974869309206   -1.06288725241283
O          -0.03421766880084    0.53086315194009   -1.16906783513979
O           0.98189812123354   -1.16658518258412   -2.50367794917261
H          -0.04102102269419   -1.30237394742018   -2.66846045784928
H           0.01901563245719    1.15276414948955   -0.33381919397639
O           0.20590424334090    1.93690517241277    0.89175539868724
H           1.10907106044022    2.30996527728819    0.77857339099721
O          -1.50354993724820   -1.32918865610929   -2.71223836045672
H          -1.75597287474220   -0.40338220809724   -2.65462122910238
H          -1.71820122827363   -1.72922867831243   -1.81195635413428
O           2.77271348702085    2.39219060937073    0.38507004232568
H           2.78370777857316    1.56020363030953   -0.12985941544565
H           3.15288458536043    3.06311327959270   -0.18437440696669
O          -1.72374214162603   -2.12368938795454   -0.27216974146519
H          -0.76709335626182   -2.11975023903682   -0.10818275810858
H          -2.07596613611717   -1.40805990222363    0.30780441668573
O           0.67758378053270   -0.28469755972594    2.30247056196585
H           1.52206450815276   -0.35023024266407    2.75235307781713
H           0.31078833141161    1.22955688925186    1.56643069607234
H           0.76267279949329   -0.81753401475833    1.48259780883375
N          -2.28200908887237   -0.04955344955915    1.40542689982360
H          -2.11061016448371    0.85357795824087    0.98001395274467
H          -1.53177461011664   -0.21666197131732    2.06730897294662
H          -3.14773903297107    0.00859402433176    1.92665947733892
