    26
        -50.44336428  Gyration_radius:  2.52098494249 Dipole_moment: 4.876
 S          -0.99979581089402    1.28204744173300   -1.14235293267585
O           0.38715051254899    1.28205407907861   -1.48613867315544
O          -1.33525343076534    2.13989004649972    0.00208981065646
O          -1.56636832832935   -0.05222381285979   -0.92664667624075
O          -1.78551057377107    1.89733789455613   -2.36593240726327
H          -2.67940877264557    1.98156773251887   -2.04955353768072
H          -1.42733144647653   -0.83347798593428    0.42184714380749
O          -1.37282988200049   -1.19545720052753    1.35271644992032
H          -2.18314515602479   -1.68735154726287    1.49619324396795
O           1.63824860106084    0.84445289448794    2.36443112260746
H           2.01515965511519    0.81493088215548    3.24560147350546
H           1.66469112189770   -0.10734161222073    2.00173497606162
O          -0.27225434418157   -0.87042410016031   -3.18959199289101
H          -0.86900177023783   -0.78802078373423   -2.43428590052285
H           0.19161357311657   -0.02851449342650   -3.21398351571826
O           1.44828979481782   -1.54595805496347    1.48102696601667
H           1.70363694213990   -1.47460149594178    0.51148959542617
H           0.49415966567934   -1.69393911766240    1.47597815773160
O          -0.83008941758574    1.17253722308123    2.21424130818036
H          -1.04035436981541    1.67134965305656    1.29556369683449
H          -1.10624159577700    0.21804671524303    2.03310561340641
H           0.22755544290807    1.13553560130898    2.30498117947007
N           1.91219160573135   -1.14064405822888   -1.08112789712088
H           2.86787835431404   -1.12710061486054   -1.41547960607494
H           1.54622637222684   -0.19246580256048   -1.16458408615329
H           1.37078322693288   -1.70222948337070   -1.73132349207267
