    26
        -50.45677429  Gyration_radius:  2.47304130274 Dipole_moment: 3.911
 S          -1.39023615183777    0.31694380378929   -0.90503076613800
O          -2.49128357170762    0.79263629363951   -0.12266136558650
O          -1.08875590025424   -1.08307278832038   -0.69612974303150
O          -0.12167808365295    1.14167732462880   -0.58545123842874
O          -1.61270431053511    0.61221505702466   -2.37222218057670
H          -0.67215215888968    0.61536353815552   -2.82764971558812
H           0.08108151465752    1.11596880246243    0.43692136729355
O           0.25428112234697    0.97622528805549    1.88716478339287
H          -0.59126880896602    1.32941108691230    2.24489061887370
O           1.30839292817367   -1.49179242549566   -1.89557934841838
H           1.86858680374330   -1.28156866756809   -1.11166084836971
H           0.41365065180537   -1.59509025956348   -1.53378547311813
O          -2.27121724528379    1.61556014409797    2.40205891537189
H          -2.65796404003278    2.49018291534167    2.46867087965328
H          -2.50265041925442    1.28274464359703    1.51136434222100
O           0.73374835641798    0.63287043069705   -3.23283597448445
H           1.06014102872992   -0.23458599654709   -2.83593265624372
H           1.12263176379842    1.32938203006378   -2.69636939496152
O          -0.23925531467534   -1.64793185450019    1.75268915796385
H           0.18689032554518    0.00235527388660    2.00389588856246
H          -0.97773727621985   -1.98254016472179    2.26508540872430
H          -0.56316600477173   -1.56283042025599    0.83014095319157
N           2.48470454563187   -0.88323977263443    0.48641752026363
H           2.36391054145825    0.08867802227495    0.74494688249840
H           3.43627893189646   -1.14994161807482    0.70537348527509
H           1.86577078167194   -1.42962067673243    1.07568852160891
