    26
        -50.45383324  Gyration_radius:  2.48221566278 Dipole_moment: 7.387
 S           1.98117257333557   -0.47949953129314    0.10138543102175
O           1.89338138316781   -1.47767010668485    1.13264445359644
O           2.10633879365825    0.87421814499615    0.59031027374435
O           0.81475831637780   -0.56166192032552   -0.82829602128008
O           3.23781998295199   -0.81521313014290   -0.77243052087572
H           3.18599694892100   -0.19197867837574   -1.51608948363584
H          -0.04488219371962    0.85755719593116   -0.72730215115300
O          -0.54894102589606    1.70043784466218   -0.65000894724495
H           0.07114477832825    2.37985971333700   -0.92342054559004
O          -1.67439767186871   -0.70831027581607    1.91209410309669
H          -2.31402170666336   -0.28411051136776    1.18811748409947
H          -1.18480190687516   -1.49321005115423    1.41520979774363
O          -0.43078890730624   -2.40995704150346    0.55043097278400
H          -0.19579261766114   -1.84141222805408   -0.21112599673995
H           0.43634206706584   -2.44412582657359    1.00756884575868
O           2.14215111549765    0.56329381301446   -2.80664534712242
H           1.47725782923829    0.17352307613584   -2.20430167881669
H           2.11999222422167    0.04513648189024   -3.61378063463476
O          -0.06036484698347    1.22106917151322    1.99769027665454
H          -0.42407587883511    1.70614024093927    1.23583094924093
H          -0.96018476594737    0.03252901919917    2.07664799885924
H           0.86279044952182    1.03648667216403    1.70680918495585
N          -3.02814205321561    0.39802244035016    0.04641558840132
H          -3.35406623073426   -0.25424158994629   -0.65519198630422
H          -2.30671957558693    0.98364689875533   -0.37259281446616
H          -3.80196706109814    0.98947014836407    0.32003077785630
