    26
        -50.45765158  Gyration_radius:  2.48330372062 Dipole_moment: 3.141
 S          -0.08324690369719   -2.14770112225961    0.22954698251865
O           0.54168707905808   -1.15859385049003   -0.63871628394558
O          -1.50578604091016   -1.91631354912400    0.38593778676976
O           0.60607519765015   -2.27294872488693    1.50039899381576
O           0.05825822273507   -3.53044547860859   -0.52396126054483
H          -0.58492788184696   -4.04870244189101   -0.05334663816233
H           0.56383289619129   -0.94396767200327    2.35396762465047
O           0.48911078696819   -0.06501148622961    2.81763673341716
H           0.78459374690519   -0.21481503126723    3.71686732463181
O           1.26266465783894    1.11620419232652    0.48215240199640
H           1.21534533099483    0.89715797092140    1.42832885364001
H           1.15218409808383    0.24780266429137    0.02821130828956
O          -0.97131725793202    0.44222925014775   -2.08911099631419
H          -0.55741651496786   -0.33054349459831   -1.64505838201772
H          -0.20288211877858    0.90942571665357   -2.50651748854914
O          -1.12766792572162    1.84029992136318   -0.04438085675176
H          -1.20503472682147    1.28675971394252   -0.96644983346374
H          -0.13399089443174    1.72950779286086    0.18291666744928
O          -1.98682333719393    0.27651609971856    1.70995761982522
H          -1.22597227943979    0.24302957546364    2.31827027618876
H          -1.61141758898492    1.25637281243238    0.68990067792624
H          -1.96128102892223   -0.58541289819986    1.22574905245386
N           1.36098291445424    1.66136481359742   -2.65744530442432
H           1.96578460785616    0.98856894219848   -3.11158857265288
H           1.68942977757690    1.76899541464977   -1.70393724217892
H           1.46781518354760    2.55022086835062   -3.12932944502055
