    26
        -50.46793858  Gyration_radius:  2.51175884555 Dipole_moment: 5.770
 S           0.40182757474200   -0.30826751665480   -0.63825028464751
O           1.26109430832846   -0.25820598000997    0.66943839198702
O           1.13303442033371    0.50924346495013   -1.59912735784729
O           0.24617721758168   -1.68447020495382   -1.03785997220508
O          -0.88049948239892    0.32518289650798   -0.29807915189193
O           0.34184437315351    2.11484467785582    1.56873343162650
H          -0.58632068510746    1.86863101120994    1.63000692601190
H           0.81102792988987    1.27619882299353    1.39453469771411
O          -1.95693612519857    2.36514642301916   -1.57803791172605
H          -1.69792127895075    1.55831540247055   -1.07606938060768
H          -2.29628822660906    2.05573634913665   -2.41904231775193
O           1.26705909918584   -3.77531741374741    0.24191189228794
H           2.18589862243029   -3.86357633518071   -0.01465196129159
H           0.88575054995358   -3.08733757847732   -0.34359902482716
O          -1.92028414922122   -1.86658485824946    0.77912321890794
H          -1.75174408362032   -2.51524809277288    0.08979754684826
H          -1.66715221297004   -1.01002277062231    0.38248687693742
O           0.36230017444054   -2.09094494852571    2.12376946032206
H           0.92600898184838   -1.00691815029695    1.31188654357458
H          -0.58361888147401   -2.07153603873917    1.84481450457374
H           0.74051846092369   -2.87377467051080    1.67148078578228
N           0.57145917044162    2.91157401610004   -0.95006408615031
H           0.90980101737556    1.93940707837275   -1.29541806096808
H           1.17452243209014    3.66788867316038   -1.25286702872562
H          -0.40629332369403    3.00181798911886   -1.30460967338334
H           0.52873412652559    2.81821773384778    0.09969193545333
