    26
        -50.44202428  Gyration_radius:  2.43940664918 Dipole_moment: 5.435
 S           1.32244467809341   -1.53700362127766   -0.00863267723691
O           1.20612282415291   -1.26958416305204    1.42448875778067
O           1.75364441986371   -0.40636991499585   -0.76991119282225
O           0.07150400030814   -2.13136555117149   -0.50198546094130
O           2.41446546239829   -2.66796907431932   -0.16674004756345
H           2.01198703933284   -3.42492929561174    0.24638278725228
H          -1.02957746986792   -1.91554909672526    0.64334289749696
O          -1.46597932861427   -1.63157194169122    1.48995665584561
H          -0.73566874949677   -1.67883122448721    2.12117348789739
O           0.70881563954291    1.23038324540822    1.82361172824593
H           0.97713312970079    1.42337239489259    2.72397070439430
H           1.03018227384010    0.31111603267281    1.62086803358598
O          -0.36234992392866   -0.43098276096930   -2.47364857130958
H          -0.29625215582524   -1.18559371854678   -1.85419525030752
H           0.52074640988538   -0.04120122896246   -2.44407577245402
O          -1.92068854440961    1.23885530689491   -1.27834258657704
H          -2.79530306550752    1.13014282230112   -1.65523569607636
H          -1.31166310539959    0.60937525007791   -1.78112654235364
O          -1.71515526473575    0.84859351874082    1.19748972399594
H          -0.76094446334886    1.13289529484774    1.46091184171202
H          -1.82076472755937    1.03999492972139    0.17658357322511
H          -1.71920623743127   -0.19767534135133    1.32495914078018
N           1.11062231069388    2.57123637401775   -1.00498542260669
H           1.14079825650237    2.87091258903463   -0.03774951399638
H           1.53182835778795    1.64788238614283   -1.02675489529704
H           0.13325822402225    2.46386677840757   -1.25035567265774
