    26
        -50.45383328  Gyration_radius:  2.48087910089 Dipole_moment: 7.387
 S          -1.97266655622722    0.03243140851185    0.51600453795011
O          -2.37058778558600    1.16808756995001   -0.27102433594311
O          -1.44823964262479    0.36500424517925    1.82051805449259
O          -0.97795362943212   -0.80816894930317   -0.21560463266002
O          -3.23500760868353   -0.87743645276255    0.70057954966718
H          -2.89258629165592   -1.67737651410715    1.13276738218854
H           0.44618568832043   -0.80821458229956    0.64343190972882
O           1.28627528918965   -0.79257724029213    1.15749771618156
H           1.05730020631349   -1.17441174365383    2.00749759959354
O          -0.75646992302343    0.83653475187154   -2.24444508434194
H          -1.53921808002182    1.24019377139335   -1.81264897314519
H          -0.69337278527043    0.00481055051802   -1.73196693657773
O          -1.60697525469843   -2.97228515838908    1.14933122790853
H          -1.82611920275986   -3.71855524368652    0.58766702226802
H          -1.20870664352706   -2.29197823631742    0.57014718355614
O           1.13997421882458    2.07505287949946   -1.16466445322037
H           1.90305129421842    1.34620815194226   -1.18200674945409
H           0.33862443777629    1.64001791311713   -1.68542388436073
O           0.62170785394752    1.85782594561757    1.28899090393540
H           0.85787298032981    2.11614110639751   -0.16244392462486
H          -0.27853016527025    1.53126876922207    1.52098430373870
H           1.17459549616878    1.07350449938003    1.45325567431936
N           2.85083732975167    0.17806998070272   -1.06320859927198
H           2.49572073323890   -0.33898385218275   -0.25980647531276
H           3.81540188368340    0.42539895584260   -0.88445555793046
H           2.81888616702784   -0.43056252613882   -1.87097347866790
