    26
        -50.45677440  Gyration_radius:  2.47292746446 Dipole_moment: 3.909
 S           1.13906919113733   -0.11021218198266    1.24006562342626
O           1.64971284415724   -0.34190138904230   -0.09417330068587
O           1.02013578910135   -1.30110365481756    2.02639957385153
O          -0.23853413994000    0.58235938521304    1.12144012404566
O           1.96657021322093    0.92769119041124    1.96607469866424
H           1.70604558644562    1.85780745659197    1.56679091294475
H          -0.94674426157513   -0.07864235019393    0.73585253871361
O          -1.82756540349043   -1.10518270622770    0.16797076214039
H          -1.76670665500769   -1.83556084160967    0.82412458287678
O          -1.07855601274415   -2.94031232783359    1.93528014386118
H          -0.22727584239393   -2.46486094568467    2.01806419755170
H          -1.40102739156501   -3.06731055760742    2.82905150452799
O           1.25034293232178    1.98106719618224   -1.43463263021838
H           0.34770444102948    1.76789206471151   -1.76993791909088
H           1.59782215520851    1.13231848090083   -1.11683784105376
O           1.14586905277436    3.03933033983627    0.91086914356306
H           1.22578730877801    2.77782474743779   -0.05969969508757
H           0.20780960159145    2.99810350308612    1.11713799790904
O           0.03635057264821   -1.79093497969686   -1.62195178904636
H          -1.30067115156187   -1.41641010909038   -0.60149457348952
H           0.71893850483596   -1.27092582739025   -1.14554465725365
H           0.34012973014311   -2.70063063797562   -1.61434125621442
N          -1.17975986762959    1.00338312780234   -2.18677139691249
H          -1.82146483613462    0.91333409268590   -1.40823011350649
H          -0.86994553253946    0.06859797904319   -2.42979048402973
H          -1.69403683883601    1.37427894524958   -2.97571615748656
