    26
        -50.45383342  Gyration_radius:  2.48128560126 Dipole_moment: 7.394
 S           1.16515995604584    0.23547258387195   -1.65767576352265
O          -0.10897675521150    0.38594583783562   -2.32192439435499
O           1.70992987301055   -1.09408055355254   -1.71271425033582
O           1.04438993577986    0.70993425564180   -0.24637193781498
O           2.20068641330844    1.19652783170551   -2.33550839831927
H           1.84752386144137    2.08614496642184   -2.16826106643367
H          -0.56296344173184    0.97124215661857    0.08799672253815
O          -1.51964012665044    1.11286495186179    0.27566254474522
H          -1.79173900774437    1.78886072527581   -0.34861864711433
O          -0.58452530576069   -2.40032567244397    0.92719044648465
H          -0.99653552968675   -1.75909057121645    1.65751810177190
H           0.43609469480294   -2.15580496576960    0.89716904058040
O           1.78137802479854   -1.57178073166095    0.81247045566136
H           2.01976180811711   -1.75830217463226   -0.12050602096230
H           1.59381699312255   -0.61310177072241    0.74851692073845
O           1.14542499607384    3.24691963744348   -0.94924354026866
H           1.81919240410332    3.73925158266085   -0.47596272950700
H           1.05388947978542    2.38644041143160   -0.49298016002394
O          -1.66344862279374   -1.27549297536394   -1.04933064554290
H          -2.01434884628006   -0.50716148625788   -0.56508083813737
H          -1.05692778047325   -0.85290291270111   -1.70073741315393
H          -0.99955947216707   -2.05902863179053    0.03441948852367
N          -1.53987325148055   -0.66743755038011    2.54572339269810
H          -1.65551339160171    0.12285863478885    1.91247762017402
H          -0.88889322006118   -0.39883316213756    3.27241623926720
H          -2.43430368875524   -0.86912041691239    2.97335482230070
