    26
        -50.46248718  Gyration_radius:  2.4060840653 Dipole_moment: 4.401
 S           1.21964829283573   -0.12744979605360   -0.28208244198423
O           1.37987755383719    0.85900896712279    0.76708376644022
O           0.62450030755645    0.46023524825257   -1.48395997144698
O           0.39536307907674   -1.26122134232268    0.15959965435550
O           2.62508684555565   -0.67207029357606   -0.63438736266107
H           2.43199851767902   -1.30528615286636   -1.37682472112766
H          -1.08318306518655   -0.77004947047590   -0.27959074855620
O          -1.91798695776353   -0.32152010764802   -0.56737814569132
H          -1.71055858648853    0.01664350344722   -1.44384703449237
O          -0.39317846394778    1.05123121573897    2.66586932734185
H          -0.60020141695240    0.09925637393145    2.83521473203634
H           0.41650091314976    1.02385105722893    2.09736318604851
O          -0.80253149791167   -1.55009773661004    2.51779488410121
H          -0.25450786461366   -1.57015977150091    1.70535471288420
H          -1.66223059417148   -1.89430879137954    2.26764731448820
O          -0.05969216585836    2.81172471460817   -0.56889682933276
H           0.67238963480801    2.96509974777780    0.03729060443984
H           0.20221136024000    1.98873849349970   -1.05044984409002
O          -1.90052991489102    1.80515265515252    0.86745319784379
H          -1.23694209787708    2.34299422198888    0.28760323458125
H          -2.05291504912103    0.94720240637761    0.33855284409535
H          -1.29566659393766    1.50396021719693    1.75830473236413
N           1.47281388513094   -2.05377878419436   -2.52319662446923
H           1.69595448665185   -2.44095941601289   -3.43091755013911
H           0.94179460158501   -1.19661692785988   -2.64411292920516
H           0.89198479061349   -2.71158024177259   -2.01948798782206
