    26
        -50.46271691  Gyration_radius:  2.39112320636 Dipole_moment: 5.044
 S           1.15856100039295   -1.07821089840067    0.28824337557323
O           1.03562837300974   -1.73636744676765    1.56324175022121
O           1.51532348966189    0.34420232069200    0.42164044176686
O          -0.09561923745942   -1.18987004813703   -0.48275073205267
O           2.26430658963713   -1.74523846441643   -0.54919307005724
H           2.38583330345149   -1.07831003354051   -1.30279645203470
H          -1.48597935573160   -1.13259668953827    0.31554391579269
O          -2.33710746659334   -0.96540445776072    0.80000132864595
H          -2.87474771943866   -1.74847315223275    0.67616895540848
O          -0.76874441103395   -0.42723564806920    2.96691339586853
H          -0.03564402854668   -0.99767101258107    2.63578472500078
H          -1.53946961747025   -0.68117770891930    2.42736496293677
O          -0.63523448646598    0.70449881695503   -2.15647383386344
H          -0.37426361679926   -0.03307968182518   -1.54603333625658
H          -1.24988813351909    0.32292063509665   -2.78612796422985
O          -1.93756368051152    1.65943979149021    0.03451833961402
H          -2.34568221162096    0.81129119808915    0.27755314060537
H          -1.47311205647861    1.49987851739030   -0.81453717467955
O          -0.08840531306254    1.66732462780818    1.76797591238646
H          -0.86271681022477    1.79849715260500    1.08748876050550
H          -0.39626228969271    0.89305405280682    2.41058409947336
H           0.66881743080570    1.19403542149759    1.21184753446498
N           2.38596985074944    0.22533969737311   -2.22896891763684
H           3.08053463517807    0.38749798569695   -2.94684017518658
H           2.53817649356788    0.87333885663400   -1.46384694781704
H           1.46728926875857    0.43231616968877   -2.60730204414259
