    26
        -50.46776451  Gyration_radius:  2.52585020021 Dipole_moment: 1.482
 S          -0.99610503010850   -0.00785260185806   -1.83820334918802
O           0.11729116730609   -0.89759057658298   -2.06162051372349
O          -0.53605606260774    1.28553908958482   -1.32584105528530
O          -2.05429794524289   -0.55877785880915   -1.01467230090896
O          -1.64822010050904    0.27788292389893   -3.25322343089238
H          -2.48304189663927    0.66842072533638   -3.01564871963829
H          -1.72420169242655   -0.57618578275144    0.55199391163913
O          -1.48897659078204   -0.55578807674795    1.51666634723602
H          -2.16106886219728   -1.07868824657267    1.95706099105491
O           1.62841683687250    2.44706986976762    1.79351230358503
H           1.73980742101853    2.14093750049641    2.69502650954055
H           0.64862721404980    2.49818833866186    1.63970684959871
O           0.31717624726648   -3.17123746686153   -0.74830561752291
H           0.89365936963756   -3.72506304752481   -1.27691129913721
H           0.13315829986039   -2.37458122086393   -1.29342096590207
O          -0.93318992020354    2.15253165156816    1.22426459749341
H          -0.89526391704237    2.03650257424266    0.25877957115446
H          -1.19708920377517    1.28094903246693    1.55874542557297
O           1.03908965526357   -1.50582982282921    1.21564401168277
H           0.85719096625876   -2.23948304990529    0.58977324577904
H           1.52394600894663   -0.29394643240013    0.36843878419077
H           0.15411360354294   -1.20332970756401    1.49695706539753
N           1.74113819482554    0.62357033788177   -0.14635077821826
H           1.88933779843492    1.37405631391295    0.57764448691325
H           0.89343282322756    0.88761770462162   -0.71070878274925
H           2.54112561502601    0.51508781883945   -0.75930728766765
