    26
        -50.46633709  Gyration_radius:  2.38592136394 Dipole_moment: 5.209
 S           1.43151601615593    0.19941452386040    0.77581637252925
O           1.24493916432007   -0.03298387352400    2.18158207297544
O           0.69470495973189    1.37452959877999    0.29964815016278
O           0.83303485544014   -1.04069369685628   -0.01222238719704
O           2.81184054312150    0.22305478917839    0.30907351723936
H           2.65101957430659   -0.12849913989231   -1.09926415454451
H          -0.01642268737696   -1.35179722546824    0.39524749759748
O          -1.41120501485600   -1.91533573134836    0.99739925407675
H          -1.30394900015036   -2.77748012968289    1.40170535619757
O          -1.82271290545775    1.74318854050049    0.83867115936093
H          -0.85152621726891    1.65286509034832    0.66964694745366
H          -2.01542733916010    2.68072121475663    0.79885059828088
O          -2.07396905860629   -0.19038425924601   -1.17321958246881
H          -2.20915456752990    0.53032877062842   -0.53595033130709
H          -1.97510230305350   -0.98186458676764   -0.63097953692248
O           0.15495114821319    0.90298937214615   -2.20827421297739
H           0.35271048301325    1.27987662845939   -1.32024728024187
H          -0.67957696851839    0.40553236637115   -2.05365733829089
O          -1.33898755497542   -0.10576099186956    2.82739393991659
H          -1.68684259839914    0.65668209180339    2.33719261976236
H          -1.50399932345808   -1.25997861420226    1.75806284614919
H          -0.36240334367311   -0.02676752401510    2.78199757920652
N           2.36843376989686   -0.40697534358702   -2.11999786314637
H           1.40394470413269    0.09038954491845   -2.27869472343404
H           2.23931902295836   -1.41388724162238   -2.14487678410986
H           3.06486464121092   -0.10716419368970   -2.79490373625566
