    26
        -50.46273343  Gyration_radius:  2.3907819476 Dipole_moment: 5.176
 S          -1.29851804034428    0.90374231370317    0.23727206897586
O          -0.82344569004372    0.70913927850472   -1.14228944328623
O          -1.02191037990351    2.22653712260266    0.73530991340121
O          -0.68695429915051   -0.12180997354741    1.10748110867406
O          -2.81458701847090    0.64284148126401    0.22819418440252
H          -2.87785104130693   -0.19173339319628   -0.34923969714497
H           0.74833423342392    0.18116396110004    1.75328385283511
O           1.68914195307456    0.32554850167828    2.03860138474551
H           1.69123421940810    0.27023903158220    2.99488397199102
O           2.32877105521829   -1.00800899358528   -0.29456743343993
H           1.54352652140675   -1.59061455067284   -0.35908920954975
H           2.33117460702001   -0.66342283158398    0.61461987640848
O           1.57862905331925    2.60951525451613    0.54734150239803
H           0.59910651245288    2.68052885195130    0.63701831060009
H           1.84204126009563    1.96560180461904    1.22948072592426
O          -0.05290498278585   -2.32359653422908   -0.07598883739422
H          -0.03835505418919   -2.99573891853070    0.60808306587095
H          -0.34662322162642   -1.48491073955715    0.36863387141538
O           1.59368640666331    1.11695572145767   -1.46882418325311
H           0.55100223026131    0.95589187502801   -1.44699655711840
H           1.71198773714593    1.83405985083562   -0.70932357298031
H           1.99088901653358    0.23479686587681   -1.09418390877634
N          -2.64946922056563   -1.40687281120145   -1.34770056851203
H          -2.31041901771940   -0.88033967417994   -2.14373417372536
H          -3.40390153540495   -2.01181763669423   -1.64625689618988
H          -1.87458531436363   -1.97769586772703   -1.02200936635218
