    26
        -50.44736162  Gyration_radius:  2.56270699822 Dipole_moment: 3.101
 S          -0.67395140206889   -2.17258870120726    0.35168722324723
O          -0.60595875971541   -1.01032324726847    1.19944316551657
O           0.60354431508607   -2.44982644885126   -0.31573313691476
O          -1.75881256050715   -2.12535866834381   -0.61551678842999
O          -0.95154540539705   -3.41283386207287    1.28271687539227
H          -1.06624065551097   -4.11539058823352    0.65134240653426
H          -1.64748334542835   -0.84973858181410   -1.51819271045555
O          -1.41159598130081   -0.07038708539187   -2.10002316171386
H          -1.95028569893398   -0.15295632666135   -2.88946303270626
O          -1.89158876011956    1.28382594171224    0.41701966406430
H          -1.56264220449363    0.46684513924279    0.82662274387740
H          -1.82219519566199    1.13389018511592   -0.53179888238504
O           1.54787639623475    0.59511402245290    1.51157570444960
H           0.82976672826423   -0.06377865347492    1.48591514101383
H           1.09119671413182    1.45651778159327    1.71297167125466
O           2.44053838029578    0.85626263072522   -0.83412234268300
H           2.07623670283154    0.78142518796977    0.13335150556482
H           3.35288738995610    0.56323213353240   -0.79199741923873
O           1.06530329007793   -0.78180758822219   -2.08446943541773
H           1.67762192399493   -0.03923116486332   -1.58115875570522
H           0.92685864821030   -1.54604042220588   -1.37141892253036
H           0.14302590737365   -0.38775501480071   -2.20343962916529
N           0.10460229525803    2.83205756483832    1.82115324739506
H          -0.70676192323738    2.45281545503587    1.32938748589859
H           0.38011067130238    3.68669219890518    1.35474837951152
H          -0.19050747064237    3.06933811228011    2.75939901361069
