    26
        -50.46273339  Gyration_radius:  2.39079158131 Dipole_moment: 5.175
 S           0.04255009593881   -1.38755836953337   -0.79488347415188
O          -1.23524402931350   -2.03884299418706   -0.92691833977592
O           0.52281382109991   -1.36326126550338    0.59638745993830
O          -0.01968544455938   -0.00357631692839   -1.30834947447111
O           1.10738097944291   -2.12879596126041   -1.62162529785157
H           1.96827543295498   -1.72810934568962   -1.25788496468052
H          -1.35571173848349    0.84550515475101   -1.05620274714582
O          -2.13210463067217    1.40092822030262   -0.78047867206609
H          -2.53103291352207    1.72483031996489   -1.58886107095624
O           1.62870719123279    1.64678991793103   -0.20862093684863
H           1.76166269486838    2.35067315418247   -0.84644505675096
H           1.03416499044625    0.98426436602478   -0.65011196317133
O          -2.92549316887530   -0.78105579875727    0.65591105647845
H          -2.44195731372616   -1.40689445154551    0.06674048866818
H          -2.95679884881223    0.05395597913721    0.15487126366286
O          -0.54863804610276    2.07974084841272    1.37914351972373
H           0.33132490766373    2.00579569664854    0.95429009219043
H          -1.19478917201249    2.09783407732536    0.65284481666844
O          -1.01384997822631   -0.27499252289313    2.19947066396319
H          -1.91049422769100   -0.50303779762413    1.70047269215673
H          -0.30671166153247   -0.79022426197335    1.60945408129834
H          -0.82310896487894    0.72566032781070    2.00242932657177
N           3.10580725663465   -0.99449054314676   -0.42525787366321
H           4.08925173259006   -1.10345916889607   -0.63817105603502
H           2.91344532415001   -1.40714326052701    0.47960909793794
H           2.89023572156575   -0.00453602433240   -0.34781363201953
