    26
        -50.44895902  Gyration_radius:  2.51872379989 Dipole_moment: 1.841
 S           0.11142196366957   -1.38264876916879    0.88690457367992
O           0.76096983019615   -0.11697898933442    1.11249239158486
O           0.84054712004948   -2.31739429888854    0.09033798717780
O          -1.27096874534969   -1.11934370124131    0.24468294538518
O          -0.26585401944360   -2.02021053575155    2.22753459630244
H          -0.53197897362261   -1.23008866711571    2.80847923174767
H          -1.29779085021955   -0.23287416827362   -0.26851820273763
O          -1.47482961057265    1.08829856483733   -0.97596181039606
H          -2.17119220415684    0.99304017545139   -1.63056083189024
O          -2.68666120128775    1.04755009088032    1.60430478033260
H          -2.22508337694079    1.39549939534979    0.82853348124624
H          -3.06305406069173    0.20620804556205    1.33337764005855
O          -0.75511061268809    0.22661318771303    3.30178934538755
H          -1.55259820132351    0.59832104716705    2.86578430364288
H          -0.00846985314390    0.55777460363582    2.78249189237865
O           0.59328829716527   -1.65670275775159   -2.50013300769969
H           0.67311737387551   -1.94902551482743   -1.57238322020098
H           1.16054471208479   -2.23611316871693   -3.01171734499644
O           0.60927851473543    1.06700382228500   -2.42248832378306
H           1.40009689978376    1.22476529829979   -1.84978776163080
H           0.62287628534371    0.11040341077630   -2.61280992007047
H          -0.61129603370224    1.17214360482632   -1.52679015802075
N           2.64278681392227    1.18512819147347   -0.66049326917319
H           2.98664007152290    2.06050199027843   -0.28661751973640
H           3.44097783228766    0.58528520023251   -0.82669749823369
H           2.07234202854990    0.74284395230858    0.05824568966166
