    26
        -50.44895886  Gyration_radius:  2.51927990598 Dipole_moment: 1.841
 S           1.08740854554351   -0.43836158182148   -1.17025679155488
O           2.20840463218120    0.43853430327620   -1.05189156623625
O          -0.19363959786812    0.20455208067113   -1.31339848535241
O           1.03144991218023   -1.37935226555234    0.05634821241117
O           1.30997888160934   -1.41841513735506   -2.32617949544546
H           0.38649145691114   -1.80424601294745   -2.50293846962503
H           0.32715920863472   -1.08533899710605    0.73931409673470
O          -0.73803759662719   -0.79504605120162    1.77008944299627
H          -0.45208075702089   -1.15389137187755    2.61384426751120
O           2.29255452799982    1.41851538935903    1.44620673788460
H           2.31623274665039    1.05322205167787    0.54150249452301
H           2.97694041448553    2.08906086600112    1.48054167452468
O          -1.14885124772251   -2.03400627650774   -2.44766689475713
H          -1.37231349369463   -2.52642903113278   -1.62793500690915
H          -1.31884462296830   -1.10490713818865   -2.23622697568859
O          -1.42664666255858   -2.97055713008769    0.06780670383878
H          -1.53698986933964   -2.18975592977575    0.62852359674011
H          -0.54134657221511   -3.29973071900760    0.24322487680086
O          -0.34046906408500    1.68927057440450    2.09494223626705
H           0.62993900710034    1.67934021509348    1.99646756498356
H          -0.67336429770314    2.17450549481795    1.30004290639310
H          -0.67482659975866    0.22405503522002    1.88711596061535
N          -1.00762851685007    2.78217034845738   -0.27491774471157
H          -0.41451744984082    3.51639373120344   -0.64052131161880
H          -1.96433136292894    3.00982271607938   -0.51409472716424
H          -0.76267161206822    1.92059486633086   -0.75994330312774
