    26
        -50.46776441  Gyration_radius:  2.52579822575 Dipole_moment: 1.484
 S          -1.36408469874293   -0.17909358403700    1.57446943949965
O          -2.18557264444981    0.26436328940968    0.47460276524300
O          -0.22293586947646    0.71919061982859    1.76914154918667
O          -0.94185833013752   -1.56352953521885    1.49386311793578
O          -2.24883736104919   -0.06806044182160    2.88371788430578
H          -1.74323919607454   -0.57288476162334    3.51241826734114
H           0.25707986087276   -1.82468162549917    0.46497187532449
O           1.01079892597412   -1.94375334599750   -0.17065443149205
H           1.10936621550882   -2.89116581385050   -0.27918235868947
O           2.35777293660885    0.06634534017542    1.19861041818377
H           1.51955682389220    0.34325009731078    1.60822825024541
H           2.12322937282955   -0.72360412080770    0.68664049675763
O           2.73634967774359    2.02130222327389   -0.53591491011413
H           2.74091875680408    1.34284273450315    0.18918120759102
H           3.25578032853175    1.64941475641285   -1.25056607690090
O          -2.53381062586004   -1.25382932299789   -1.64845528520836
H          -3.34264623182168   -0.94338349325071   -2.05820371180784
H          -2.46784562748730   -0.78211755137883   -0.78887104813482
O          -0.04485666452330   -0.41813917831405   -2.15583819349878
H           0.44619292539031   -1.02541672477425   -1.56935645399159
H          -0.96513198993161   -0.75871431160786   -2.14221453416854
H          -0.03311571852304    0.89422174735522   -1.31993893517737
N           0.09017186373021    1.73153767176606   -0.65829342974151
H          -0.11484249756295    1.40476359764766    0.32046734539949
H          -0.53952002034742    2.48599165448536   -0.90683808650046
H           1.10107981810085    2.02515008900878   -0.69198515157746
