    26
        -50.44736164  Gyration_radius:  2.56275138712 Dipole_moment: 3.102
 S           2.15367803962878    0.77975484594026    0.22661031353519
O           1.46323807876042    1.83676441817323    0.97509630657342
O           1.38413260513730    0.31651813665135   -0.89922305681644
O           2.58001780247564   -0.28641826466701    1.11896412707676
O           3.46385163038510    1.44189203870851   -0.34517670469492
H           3.94992313915539    1.64122267162159    0.44824092973352
H           1.34829274445485   -1.09665645888582    1.64911133539578
O           0.48845454061382   -1.46334043648879    2.00647011133405
H           0.72006710644993   -1.98764120655394    2.77567351845478
O           0.23492649165219   -2.17280056535226   -0.79244589337325
H           0.74821219413088   -1.36538823054132   -0.95997385380902
H           0.11937848271603   -2.20240184847796    0.16323949476225
O          -1.09311857394845    1.16329392415338   -1.57709969448046
H          -1.44205801752167    0.33912092992238   -2.01302268021968
H          -0.15610727593499    0.96636558635633   -1.39342095364791
O          -2.30079189795735    1.30035475912833    0.63436949550511
H          -1.83052585667298    1.22799422282202   -0.28639529947040
H          -2.61680683618923    2.20398450702499    0.69480840271930
O          -0.45514273349766    0.92293671313312    2.24348097724888
H           0.36021246862681    1.38234809354736    1.75801600220723
H          -1.29771535393298    1.07358522343809    1.57495678432567
H          -0.22591341043938   -0.06058861744068    2.22965256049510
N          -1.88605827821351   -1.22102424427679   -2.50993416074306
H          -1.20112868513073   -1.73744060421554   -1.95485606380068
H          -1.70423267550469   -1.42339420755251   -3.48444526303150
H          -2.80478575923823   -1.57904137616596   -2.28269672528559
