    26
        -50.47472248  Gyration_radius:  2.50590824287 Dipole_moment: 3.300
 S          -0.36860840192195    0.90771760491756   -0.56358538637952
O          -0.69859819822408    1.12175388809321    0.84993305831726
O          -0.62687846972848    2.22362006618645   -1.32502933837018
O           1.04273509181212    0.55516989951533   -0.71220460638270
O          -1.21769436956268   -0.11599822064285   -1.15310318801173
O           1.42793014848054   -1.87950715591091    0.27561018619426
H           0.99531285848026   -2.36639040104814   -0.45150917028842
H           1.49459496848538   -0.96330874228031   -0.06912155506549
O           2.57353040533116    2.46839076260864    0.27680781094377
H           3.19702384301505    2.71528932926496   -0.40819137175945
H           2.07706754415069    1.69546258942228   -0.07136308536752
O          -0.21408708538032   -2.48195713367560   -1.80035628970549
H          -0.56002751897758   -1.57187718514426   -1.65750611949521
H           0.13870595893981   -2.49298897062171   -2.69097596555760
O          -2.48968681637813   -2.15342054026841    0.05514390044321
H          -2.10307633155033   -2.83719550345333   -0.50257208587929
H          -2.31477579159593   -1.32085964786288   -0.42546339855748
O           0.20011136327139    3.65645962539139    0.62588817286157
H          -0.19967886424940    2.96449738484852    1.17260208853185
H           1.15703042399234    3.44063789767586    0.60274677421307
H          -0.33596474744575    2.93240055668606   -0.67564597003087
N          -0.63928603928381   -1.31434381498181    1.76776398394698
H          -1.44772986340794   -1.77257237746772    1.26931018379507
H           0.26719045735114   -1.65295384732253    1.30620157373324
H          -0.69964418512227   -0.27902705463940    1.53656095982629
H          -0.65549635048148   -1.47899897928953    2.76805885804572
