    26
        -50.46407696  Gyration_radius:  2.36413328226 Dipole_moment: 3.026
 S           0.14977031959108    0.43114611942106   -1.32398768721213
O           0.67144883510222    1.21206255691164   -0.20068756574007
O          -1.11485796821029    0.95922635524675   -1.79556664913718
O           0.00431818281446   -0.97961155560912   -0.93228666793510
O           1.18086498658274    0.48662404409782   -2.47205552734633
H           2.01475233316713    0.16588129410162   -2.01365766439376
H          -1.57866575426688   -1.18810881135484   -0.68010891363633
O          -2.53845125967847   -1.07906140780562   -0.45980046451506
H          -2.86735496440578   -0.49886655490025   -1.15447274883436
O           1.21677358779435   -2.18750714855009    1.03580357601438
H           0.82603384416265   -3.05733044109846    1.13310221486037
H           0.80658296463310   -1.79311713302498    0.23022992337781
O          -2.26164421632949    0.36459241836978    1.60064652432027
H          -2.18579598621203    1.28754712158894    1.12848034624929
H          -2.46684101334091   -0.29718151443866    0.82769728661360
O          -1.80597839400652    2.44177311279632    0.22984566191789
H          -0.92899231476121    2.74130455082257    0.49233939493973
H          -1.64908430809120    1.98971368562797   -0.63694060238573
O           0.16593203803732    0.07130160420166    2.08168437480110
H           0.54488573613966   -0.82157990636888    1.94820172593769
H           0.45069966794322    0.57484600969610    1.27780323968382
H          -1.26183871933653    0.16654610727113    1.91642136117832
N           3.04917440678841   -0.23046555495954   -0.80320772362288
H           2.64326609164101    0.45985591674772   -0.17930377538302
H           4.04805514096412   -0.07721018484782   -0.85762064999855
H           2.88694676334864   -1.14238068388910   -0.39255897986109
