    26
        -50.46407695  Gyration_radius:  2.36409267861 Dipole_moment: 3.025
 S           0.93099944421190   -0.90706425188285   -0.52145085075848
O           0.93338706805649   -2.10435245403755    0.29527984747102
O           1.35232025448808    0.26639550186741    0.24621439134397
O          -0.40372179636353   -0.67970185900763   -1.09737362468887
O           1.91421605045428   -1.09441589678769   -1.69723372297918
H           1.87578723037155   -0.19438851347753   -2.14099415718321
H          -1.41708873867134   -1.52683491479905   -0.16517896789351
O          -1.87237882708694   -1.99427497131817    0.58029297977670
H          -1.29825728242814   -2.74550955286132    0.76303854028401
O           0.97958693732399   -1.06286066407909    2.68079935834869
H           1.52759680707405   -0.29433715392888    2.48898194320883
H           1.03794612574924   -1.60384794774025    1.85364150795333
O          -1.55515999766787    1.62364982001320   -1.51115519660161
H          -2.46438749756813    1.45694955743126   -1.76434270269885
H          -1.12165254580157    0.73960606296726   -1.45401983599232
O          -1.41227025216744   -0.28958138413972    2.39390141808413
H          -0.46322344010963   -0.61352315879508    2.66761763433365
H          -1.72747614075525   -0.99328841406310    1.69903534679653
O          -0.68307542039065    1.67524686944294    1.04559512881554
H          -1.21904372297815    0.60992285888519    1.85330375427353
H           0.16460262501338    1.24735895175173    0.76426155808917
H          -1.15503225334958    1.84156173610693    0.20403984843020
N           1.57768147938941    1.40512056878669   -2.35180896003869
H           2.19421287611622    2.01774045392412   -2.87024816154384
H           1.68316586539153    1.59389059159911   -1.35994248790472
H           0.62126513167429    1.62653817419384   -2.60225456888982
