    26
        -50.44895925  Gyration_radius:  2.51872725093 Dipole_moment: 1.839
 S          -0.98478161916607    1.19466317670389    0.55766196204004
O          -0.86381511959084    2.28206083385653   -0.36032422039247
O           0.25127380337094    0.71351926021363    1.11931851516704
O          -1.70671863141195    0.01179849935375   -0.12954916623233
O          -1.95754748721244    1.56523569117705    1.68122701761712
H          -1.77884362163118    0.86973605862210    2.40020853312670
H          -1.05409836573476   -0.71987004514383   -0.42795919933405
O          -0.19628066489800   -1.89350562459535   -0.83112179338382
H          -0.63395648876440   -2.35828239973097   -1.54868734816753
O          -1.67803646365845   -2.37728746947502    1.55660453969155
H          -0.94705187622577   -2.41672086191204    0.92417794831002
H          -2.43140486374148   -2.03338072358958    1.06966539560362
O          -0.06825619429069    1.34424100343152   -2.74678308878203
H          -0.39554316023761    1.71540343360063   -1.90551995277491
H           0.10023262903148    2.09354489568511   -3.32073034014050
O          -1.12719586748634   -0.29970279003812    3.18919105433205
H          -0.25079206388888   -0.10774074158804    2.82608773179021
H          -1.39071626993221   -1.15254221478924    2.77995531136375
O           1.64816394183722   -0.65617303045286   -2.05697626210202
H           2.21332318679220   -0.18499859359324   -1.39608981688043
H           0.61640840545092   -1.44389003308754   -1.27139029053434
H           1.09347130284797    0.04017319478653   -2.45569181937727
N           2.85574158127289    0.80183624956502   -0.14129001215189
H           3.58564426072639    0.42460142641403    0.44970720937697
H           1.99687393419043    0.83053473533545    0.40570235470763
H           3.10390572240490    1.75674605926983   -0.36739426289082
