    26
        -50.47472247  Gyration_radius:  2.5059769083 Dipole_moment: 3.300
 S          -0.94024375676908    0.41643478935478    0.46870582889861
O          -0.90842419632244    0.31389295322144   -0.98961027669611
O          -2.25882442922117    1.10061801128630    0.88251393687033
O          -0.92046785291795   -0.90540460926529    1.07601262111789
O           0.17540369992407    1.23869849881935    0.95037200704947
O          -1.04372220035786    2.71711336473846   -2.07983161757975
H          -0.94645563025281    1.79520063939499   -1.75472008160668
H          -1.76718995489015    2.70298401002661   -2.70854513186219
O          -0.29557743860433   -3.03746829707984   -0.36880875665609
H          -0.62810544456774   -2.26249605067883    0.13836323333456
H          -1.06277676361506   -3.42386064288119   -0.79295269713104
O           1.16792347018072   -2.26875677210556    2.07980122694318
H           1.02758394800060   -3.05095232456053    1.53523863202903
H           0.33015992879891   -1.77081243033931    2.00916867258552
O           1.16970386280471   -1.17952609690537   -1.69938116877666
H           0.40830171957805   -0.56379611196547   -1.63764710577555
H           0.79407217097135   -2.03627733110534   -1.42053640594148
O          -1.31043212193998    3.44236254648480    0.48338284519820
H          -2.06036221801476    2.07919966900050    0.77402611155004
H          -0.48364761050377    3.05291483544713    0.80327670197420
H          -1.23441811087238    3.43144387619689   -0.49480606120193
N           2.19800262890548   -0.35257679020790    0.55412920684283
H           1.47585138849223    0.39618890225650    0.77068102477670
H           1.95937689894112   -0.69591773034412   -0.43303533251246
H           3.14440283922726    0.00361627964382    0.62759105537339
H           2.00986518302498   -1.14282315843143    1.22661151118480
