    26
        -50.46633711  Gyration_radius:  2.38592763254 Dipole_moment: 5.207
 S           0.15223635785910   -1.58689399751513   -0.38994552553885
O          -1.16747684211934   -0.94929171042664   -0.43945569736685
O           0.34640190008547   -2.35376629538555    0.80978057508808
O           1.20954388262162   -0.40397246274573   -0.39499661433556
O           0.44995969375872   -2.27072220549114   -1.64185515655606
H           0.74150525849612   -1.14644122643061   -2.52790351775291
H           1.31414269116805   -0.00972920994172    0.50937452209949
O           1.53610600375681    0.69277833249409    1.95279800824918
H           2.40225956888346    0.50117893782588    2.31504249238848
O          -0.31468433092823    2.31378499683342    0.51355584593068
H          -1.04206607318422    1.85463120385792    0.96484617370333
H           0.48192246857497    2.02087382268308    0.97182596538844
O          -2.11835533380151    0.43392665397924    1.54712022788668
H          -1.80190338171496   -0.13469888369224    0.80115972034475
H          -3.07522662332791    0.42714426880700    1.50193124336933
O          -0.85971887460558    1.20579157357697   -1.87561631986043
H          -0.57197760598749    1.79284186860092   -1.14041048066292
H          -1.17108989263067    0.39969048178411   -1.40332868385067
O          -0.19003839507627   -0.91342870192412    2.98632184057651
H          -0.03624255423313   -1.60008279915087    2.30303394856325
H           0.88368106267929    0.13078624495000    2.47754225473309
H          -1.01708149914908   -0.47214212776598    2.73329360209745
N           0.93648550150780   -0.20802413180483   -3.05734951250065
H           1.88410203951790    0.08365549919079   -2.83805556077774
H           0.22380339495162    0.50216118281740   -2.62017916334259
H           0.80371158292387   -0.31005132518218   -4.05853020793853
