    26
        -50.44895917  Gyration_radius:  2.51841693228 Dipole_moment: 1.836
 S           0.75599296139259   -0.73522091748433    1.25802583485560
O           0.91124361279734   -0.99368724508314   -0.15039545800799
O          -0.23989989757201   -1.51412576354603    1.92235110493305
O           0.45448072248153    0.76958290171179    1.45229210898802
O           2.10381797046135   -0.89401652008709    1.96817570639808
H           2.77792217002636   -0.53718771996724    1.29673709457942
H           0.01577752874686    1.18702048161136    0.62566969830177
O          -0.55292099680886    1.92182085125531   -0.56328310581732
H          -1.03844544051748    2.68704247928505   -0.24515178269486
O           3.39995154238959    0.00644775621791   -0.01941271085791
H           3.17517590824566    0.95741777806740   -0.11620843418476
H           2.75140592138072   -0.46084843397001   -0.56505005459437
O           2.22568142042476    2.43221707320022   -0.17301694601862
H           1.99119444709432    2.58093001787886    0.74666195498539
H           1.39117762980799    2.29209990188422   -0.64177682026142
O          -2.66404105483031   -0.47301203989700    1.42322081118561
H          -1.79684069490442   -0.85431832238577    1.65790512616872
H          -3.32301007237931   -1.05627116426128    1.80356955007871
O          -2.43036207254802    0.32719791079020   -1.17110966572405
H          -1.27808792299428    1.27868679740909   -0.90455499905972
H          -2.04217438889726   -0.48859342023110   -1.57362104692289
H          -2.67607109370846    0.06767612174329   -0.26350228259193
N          -1.16843566966462   -1.92636287471014   -1.93437767410835
H          -0.36400670377535   -1.69844629707545   -1.35252982029680
H          -0.83516679813623   -2.07080544900337   -2.87900642486009
H          -1.54435904851991   -2.80524391340191   -1.60161177446831
