    26
        -50.47319293  Gyration_radius:  2.45096505789 Dipole_moment: 1.784
 S          -0.84137637878466    1.25465025528956   -0.39103194534197
O          -1.77746818263653    0.28326195762580    0.16587425987132
O          -0.50136613259730    0.96351883693228   -1.76098332026454
O           0.36668031973033    1.35480946161520    0.44914653417649
O          -1.56107859169140    2.63536590326794   -0.31185600656751
H          -0.85661808420404    3.27266007678062   -0.53450953575108
H           1.37877041047694    0.09939920069340    0.14050939756662
O           1.98280984787145   -0.66402500751861   -0.02553361040356
H           2.87326780963688   -0.31051667426394    0.00098317452281
O          -0.62872100828391   -0.21083373599040    2.53095708361972
H          -1.24951176505150   -0.04334819009775    1.79738687929429
H           0.05222607044341    0.45719663375669    2.40240793441417
O           0.81838725007917    3.79849759556757   -0.41400507730414
H           1.01453928352769    4.39341738675132    0.31347641467815
H           0.91568193296001    2.88852319970584   -0.07064307376645
O           0.46577752343265   -2.42481804422870    1.49500341339357
H           1.20852645038830   -1.98161031397728    1.05395686657375
H           0.06402295924716   -1.73085199811332    2.06703867695172
O           0.56692052246948   -1.38997690606906   -2.29659817185471
H          -0.52847334942631   -2.03938415283310   -1.35807476580577
H           0.17815201392287   -0.48849846094492   -2.33017553293048
H           1.31047922533440   -1.29880711899870   -1.67907502114430
N          -1.18238862602248   -2.20149191102448   -0.52848378639956
H          -0.57555302951708   -2.47147379287558    0.31098332574517
H          -1.90401397647070   -2.88503292968035   -0.72510371543478
H          -1.58967250486622   -1.26063129137343   -0.30165041780907
