    26
        -50.45075167  Gyration_radius:  2.45943323425 Dipole_moment: 7.057
 S          -0.28564549345085   -1.74583090249629    1.15170281561795
O          -1.51371242144374   -2.39938072253500    0.81294434893900
O          -0.43156719287567   -0.73976413785372    2.23370114280899
O           0.13286706658162   -0.86243500698447   -0.11637562110114
O           0.89758312451339   -2.55304638949647    1.36882421945927
H           1.96212815582350   -1.27378815564375    1.49066388028792
H          -0.71823485716354   -0.45253478057928   -0.40855560098291
O          -0.98706356862678    1.60711440826853    1.11087027736062
H          -0.89707898636877    0.81031361159656    1.67546991095808
O          -1.57392402740023    0.01005569695473   -3.15763200675646
H          -1.84573983577167    0.67159472960832   -3.79485553736361
H          -0.62749401425879    0.18079050337200   -2.96732868144547
O           1.43073440920758    1.74477627721727    0.10837838734444
H           1.71406210431500    2.65798554325708    0.17687420664311
H           0.48688787576687    1.72194949805272    0.44036566947618
O           1.01319892290969    0.41008998766814   -2.36889330593453
H           1.15549054205137    1.01019540609604   -1.62049660222665
H           1.06553780268081   -0.46672498685541   -1.97437152898664
O          -2.33443478578745   -0.15640247694131   -0.58963420991473
H          -2.29996705067918   -0.21813142451751   -1.56638999312024
H          -2.48804357602885   -1.04301920818494   -0.22762007931873
H          -1.67142752877794    1.36307188646644    0.47332484926020
N           2.01674418198043   -0.28375832210569    1.85534059659282
H           2.76247020926771   -0.14220722092851    2.52832218803903
H           1.01873362888093   -0.27401608575872    2.27631176382951
H           2.01789532371742    0.42310226270495    1.08905890049185
