    26
        -50.47472246  Gyration_radius:  2.50604584189 Dipole_moment: 3.301
 S           0.17720430969710   -0.58259169935663   -0.95182974353770
O           0.50778457638757   -1.15722777562481   -2.34412393777910
O          -1.24792519375993   -0.23470302094004   -0.92449021666105
O           0.48772758683500   -1.60763049561473    0.03272425300269
O           0.99894766213939    0.60711490609071   -0.73365188752990
O           0.49379567427651    2.42129428208173   -2.58712571092485
H           0.70737415512629    1.82033548589508   -1.83988457422076
H           1.33300273505187    2.66618284058779   -2.98035983226157
O          -0.80026937891345   -2.19631269782386    2.31805317065013
H          -0.43984355296378   -2.25706687942186    1.41188430750788
H          -0.02245768390942   -2.10609105087102    2.87920549105027
O           1.90356570971993   -1.01129177597223    2.19215423287205
H           1.47003344171651   -1.25320155916421    1.34250841019546
H           2.84555040529710   -1.10138907757478    2.04268176295861
O           0.71382916464513    1.39489456594290    1.78643825443013
H           1.24090315718878    0.67895007987542    2.18951738431952
H           0.89205305903665    1.29899681056016    0.82636709323427
O          -1.07708348749748    0.46679934551062   -3.52471886092644
H          -0.59171365990479    1.30859795627473   -3.38854669578757
H          -0.05182566929205   -0.60236386756949   -2.96671111134929
H          -1.61900907364348    0.35867441570152   -2.72961955020064
N          -1.61733673114394    0.23110551527105    1.61057468062982
H          -0.74912193943405    0.82874497663451    1.80638765928071
H          -1.61569413252389    0.07389321023959    0.55971272359207
H          -1.46429010182130   -0.71628051119613    2.04782865934978
H          -2.47520102231261    0.67056605046637    1.92502403810916
