    26
        -50.46633711  Gyration_radius:  2.38591027818 Dipole_moment: 5.206
 S           0.33777397335351   -1.60390657239499   -0.06903271729575
O          -0.87921285249398   -1.09034996350672   -0.70604018868475
O           0.07721761854592   -2.19875275776160    1.21288392531440
O           1.27869643113997   -0.34592834191587    0.15375181311134
O           1.11649271764002   -2.40887481087330   -1.00142094897015
H           1.69335461371471   -1.38163141922415   -1.86456364849420
H           1.01484849922300    0.16324962488011    0.96336244477123
O           0.64286667804249    1.05257587982201    2.26581748938483
H           1.30829106978023    0.97864146920065    2.95145302405734
O          -0.55790309176369    2.32423137189756    0.01454242432720
H           0.00913803005429    2.15817036680752    0.77685769567084
H          -1.38851019113436    1.86408523559338    0.21956247673752
O          -2.56266647813060    0.44148631572058    0.55224486391825
H          -1.96669642713268   -0.18621531167129    0.07192087605526
H          -3.42748045543225    0.35088580630734    0.15013609648082
O          -0.10568823762237    0.89068488632977   -2.21601038122574
H          -0.14164378690704    1.58523515364353   -1.52020492812307
H          -0.55096741862335    0.12549660778056   -1.78475658684290
O          -1.29947238076132   -0.55292529374047    2.79283294763532
H          -0.87360562244216   -1.30287306495953    2.32575333988291
H          -0.14433402259596    0.50686275846207    2.58104037189413
H          -1.97775433430349   -0.21657328394382    2.18489801860332
N           2.04925454720591   -0.50237402479003   -2.41182963585801
H           1.20214336738526    0.19387844120873   -2.38484221706546
H           2.31619873774921   -0.73746516034293   -3.36255269601007
H           2.82965902551460   -0.10761390250342   -1.89580381927799
