    26
        -50.44736164  Gyration_radius:  2.5627284587 Dipole_moment: 3.104
 S          -0.51672073492110    1.55198338391668   -1.61945258314009
O           0.61166624430234    1.37897098750032   -0.74133735772609
O          -1.79071663631505    1.57107013745350   -0.89089376257474
O          -0.56169095246350    0.58750902986322   -2.70693620367622
O          -0.37795420397534    2.97459929703385   -2.28210941006967
H          -1.10002615047915    2.97796013174433   -2.90184299908507
H          -0.57311652976806   -0.87813030778849   -2.15311552498895
O          -0.69047084573674   -1.75521637022566   -1.68580098415704
H          -0.97494426153124   -2.37986425167283   -2.35595293229156
O           0.49315987961401    1.02165671910422    1.93683266851522
H           1.31332309780804    0.47395928371869    2.07271589475306
H           0.52229255533045    1.27918317382797    0.99700428760298
O          -1.42860074744738   -0.58592375624598    2.23747605816653
H          -2.03850986363298   -0.14298780652480    2.83066368146159
H          -0.62125384081272    0.05567026021899    2.13406697475675
O           1.95226135374469   -1.01500982609086   -0.75373434875868
H           1.63196884089823   -0.10060948994475   -0.82260419944841
H           1.20084291223599   -1.56304692312190   -1.00403925078665
O          -2.37073054843795   -0.68354545679728   -0.05186210144067
H          -2.20952523963456    0.29844045188493   -0.40040747531758
H          -1.75468607216593   -1.24877746859583   -0.61847050611601
H          -1.98033841755062   -0.68654715295732    0.96162261575746
N           2.61694491010150   -0.61048318891295    2.02954099844396
H           3.52699042909681   -0.18343698460428    2.14419412117760
H           2.52757954493017   -0.88770092634846    1.05015650121957
H           2.59225526681843   -1.44972295644300    2.59428585772902
