    26
        -50.45100475  Gyration_radius:  2.52660366814 Dipole_moment: 1.973
 S          -0.52571523660590    0.16291558682432   -1.50525753398867
O          -0.01265230712291   -0.98696298827969   -0.79916257486548
O           0.35548961908953    0.66817820560313   -2.51137257775353
O          -0.86109948866722    1.27356094276361   -0.47472883222078
O          -1.89286059508236   -0.13902304665767   -2.09219235857091
H          -2.53815013537414   -0.17793852222317   -1.29271415266545
H          -0.02965584229773    1.54906530090491    0.03838709779210
O           1.29341924316176    1.96247107714810    0.70085008300438
H           1.37398360743370    2.91853565482250    0.71926513190999
O          -3.36977281359872   -0.04363833008089   -0.05550313665449
H          -2.99910968496019   -0.48793436234450    0.75820325987474
H          -3.34759186055588    0.89673412472185    0.13887156074523
O           2.61534664548743   -1.57412053921291   -0.93821624630630
H           1.64797317861197   -1.46970412583314   -0.86204678099383
H           2.76682505460214   -2.08490755427120   -1.73521103201083
O          -2.36141532598102   -1.10019273020663    2.12193594184447
H          -1.39272220789521   -0.86825082551211    2.17999893281592
H          -2.40450246049890   -2.05767221825605    2.11285684363392
O           2.71661423908161    1.10825422815965   -1.26685858229828
H           2.93586342580002    0.17208254340286   -1.08645323960556
H           1.99395269990209    1.06875801616245   -1.91806254331374
H           1.95250580976909    1.64231870817770    0.00665988944459
N           0.26284305907069   -0.63884645739249    2.04621265920973
H           0.58927177149397    0.31757681670217    2.11901358223605
H           0.30371403487165   -0.88627162848217    1.05965401909558
H           0.92744560026528   -1.22498785658684    2.53587059966074
