    26
        -50.45100466  Gyration_radius:  2.52665569387 Dipole_moment: 1.975
 S           1.58288297832831   -0.24385984755551   -0.05398137985320
O           2.13706382387850   -1.07025729719284   -1.08059627700182
O           0.55030602149730   -0.88666011917850    0.72359814619027
O           1.00867394472854    1.06231877908086   -0.66427482163079
O           2.67672357823583    0.29155889243980    0.85237101509094
H           2.26831194843424    1.10195433937912    1.33555152465342
H           0.22024040557519    0.85842494579900   -1.27024235581151
O          -0.90349211793375    0.44887789882611   -2.23471961529319
H          -0.80910506933495    0.90706353955082   -3.07259942368992
O          -0.94144996952894    2.08183425895131    2.46416775039278
H          -1.06200655737406    1.60154779182382    3.28471994372064
H          -1.40157493322392    1.54487793314410    1.76030347028124
O           1.58950135755306    2.34046420716118    1.83121180954441
H           1.55450696496512    2.91080725582657    1.05923373604647
H           0.63875622002704    2.22232245708814    2.11247208769171
O          -0.62291189483253   -3.12628258907721   -0.21369561280736
H          -0.23047069873149   -2.34938234563708    0.22777580254793
H          -0.07293652014796   -3.87467505909516    0.02398223025793
O           0.03302891659885   -1.92848940561764   -2.54794426444062
H           0.92820515109415   -1.74080261141414   -2.21427921933063
H          -0.37063299120892   -2.49646295161900   -1.86131832194460
H          -0.64813093083355   -0.51108082703606   -2.41368753367125
N          -2.01010226052925    0.43010878162308    0.66568007487724
H          -1.20493875543483   -0.19043227469524    0.71881058765209
H          -2.07545248125614    0.73833261480872   -0.29730619567298
H          -2.83499613052800   -0.12210836736110    0.86476684218311
