    26
        -50.47319297  Gyration_radius:  2.45093816208 Dipole_moment: 1.784
 S           0.73897051150234   -1.13798452381275   -0.77075942241424
O          -0.50785434572964   -1.86055746170600   -0.74958070357555
O           1.35681144940389   -1.06033254742913    0.54917402491848
O           0.56529840065146    0.20955419506514   -1.34467842345186
O           1.76269939850448   -1.88570073089659   -1.67830215240231
H           1.39510126452003   -1.77527186242528   -2.57530638979443
H          -0.75407517164003    0.93838078130540   -0.69377249326053
O          -1.53452331729264    1.39037593706308   -0.29143684753715
H          -1.95854934886604    1.87395891079268   -1.00203055227771
O           2.02839354545120    1.52816248753624    0.62904152869059
H           1.75035450372726    1.68533964759113   -0.27897638802315
H           1.99521583184787    0.55659084479024    0.70948968952341
O           0.59428930805437   -0.77719859439257   -3.78290242044602
H           1.17611539725822   -0.27235713198626   -4.35570635520154
H           0.42788536814549   -0.22782348132316   -2.99175613469497
O          -0.18583459822349    2.02031028528433    2.05336377287317
H          -0.79617146955572    2.04400722777360    1.29867393458265
H           0.71221385989017    2.01176495317684    1.64886610978435
O          -2.42013814313667   -0.97987692866011    0.84268810383033
H          -1.32480660952763   -0.80343308901402    1.97022026604678
H          -2.44863253956257   -0.08409451509645    0.46946188593628
H          -1.86141459127499   -1.48041611903207    0.20851776033498
N          -0.40669704523590   -0.55800382804329    2.45908392748559
H           0.35361841584798   -0.88845422314810    1.81469810018337
H          -0.32731406898164   -0.97642804416323    3.37850683119700
H          -0.33095598577185    0.50948782075284    2.48342232770183
