    26
        -50.46892621  Gyration_radius:  2.48074526346 Dipole_moment: 4.940
 S           0.86898722263148   -0.34674286841391    1.97204968694322
O          -0.32631711563291    0.37732256246133    1.57409572029060
O           2.04000945662034    0.11759910447414    1.23899894997756
O           0.72306062550586   -1.78526314067539    1.93260734674378
O           1.11243694926223    0.02334727119068    3.49367292732814
H           1.63729420494359   -0.71904178656949    3.77188374573436
H           0.28863537349071   -2.24862647250624    0.44587044634008
O          -0.01782349180275   -2.50429258986356   -0.45831474932953
H           0.21729809246494   -3.42679450508511   -0.56896118734989
O          -2.28603673941113   -0.99816209650725    0.27244783937247
H          -1.75331301895323   -1.73969270177420   -0.04470022830819
H          -1.70217591959804   -0.51928574693073    0.88488126814262
O          -0.62134383049310    2.47912498494301    0.04260465916506
H          -0.55577905758301    1.71373395340946    0.66453818491615
H          -0.97301754710587    3.20915436897298    0.55336513542377
O          -1.98581318793836    0.72954233716820   -1.75803356731376
H          -2.29880937140849    0.09678116461196   -1.07337154892827
H          -1.66724252390346    1.49480388457131   -1.26102180586857
O           0.22411747552993   -0.55886900939815   -2.37184906984351
H           1.05463450504537    0.46507936489922   -1.67217521569075
H           0.16406643959096   -1.32780733354201   -1.77552326240196
H          -0.66604105834457   -0.11934044297913   -2.31549541580618
N           1.53644707867839    1.23053823409249   -1.05709672744512
H           0.83036625496587    1.94797699711447   -0.83149920045373
H           2.34180495763068    1.63356811638113   -1.52212034534390
H           1.81455419581614    0.77534634995542   -0.13685356629489
