    26
        -50.45100473  Gyration_radius:  2.52646771606 Dipole_moment: 1.971
 S           0.58825208536260    1.08011293442962   -1.02882014384315
O           0.48389613969416   -0.35691514816096   -1.11827815627311
O           1.92620381998155    1.55677735544369   -0.86537561090245
O          -0.30678412588371    1.57441290544340    0.13842950385319
O          -0.07284638161333    1.73758307294989   -2.22689821228952
H          -1.08415609552350    1.60864452377279   -2.09397078138336
H          -0.00396385166204    1.16913830141504    1.01852672320353
O           0.57786908881709    0.57940330654699    2.31235202022559
H           0.65464687787298    1.25957005071000    2.98494785851792
O           2.54616082017338   -1.89951232246645   -0.31896957383360
H           1.76762320392706   -1.42839965220715   -0.67169857340386
H           3.16596589977623   -1.97295438646437   -1.04660814335001
O          -3.20281523254761   -0.80985417386437   -0.60859383291457
H          -3.25602066293206   -1.51203520726189   -1.25881636936674
H          -2.50058707274380   -1.08972222315164    0.04259400196923
O          -2.51720089746269    1.48248141571760   -1.68078104307085
H          -2.60123339554355    2.09170454921745   -0.94292296859402
H          -2.77928358244945    0.59102708452632   -1.31534328375440
O           2.91478023119437    0.24657096340438    1.28500692495279
H           2.93599274423399   -0.64623785718342    0.88569586004326
H           2.79135972150345    0.84903947601755    0.53026126955701
H           1.52060822234576    0.37826276516542    2.01310033690267
N          -1.15262544836685   -1.58270564737831    0.90972459984558
H          -0.48543423641091   -1.31365741599308    0.18952506618507
H          -0.98421986865035   -2.55554100744399    1.13390762915159
H          -0.92618799313182   -1.03719367316391    1.73300491861393
