    26
        -50.45278043  Gyration_radius:  2.61007419549 Dipole_moment: 4.723
 S           0.88305112384533   -0.61957237967531    2.53405954571181
O           0.66504851997168   -1.89678083196479    1.89756109653306
O          -0.23042031262998   -0.10660766315832    3.29172787343617
O           1.37385142375177    0.36726682484843    1.54996962229673
O           2.07122769909234   -0.80322868239729    3.57452575509998
H           1.71237261633813   -0.35727684115127    4.33475686776342
H           1.80503562537944    0.06510210467281    0.05108787985202
O           1.95754666739716   -0.08365956476198   -0.92093849005566
H           2.90687325722507   -0.14652693733149   -1.03247940112580
O          -1.04476427711317    1.10167294569622    1.03972222183465
H          -1.39212733835823    0.93759599229493    1.92646329794974
H          -0.08382442567954    0.90581802178982    1.17495893854960
O          -1.91244070696412   -0.66909266141693   -0.61579042018594
H          -1.64632534196036    0.03017187235164    0.07164416702427
H          -1.88034396805120   -0.14847772710520   -1.59193957920317
O           0.26471322018409    2.03527851413407   -1.48872732980881
H          -0.12329058623542    2.16515004821337   -0.61717185524749
H           0.95852463873647    1.36335906385294   -1.36897662524951
O           0.14211707110522   -2.09784508648601   -0.64107576277767
H           0.32951817304888   -2.19318080379196    0.32591674512302
H          -1.10806566653404   -1.34968184577224   -0.63605102270579
H           0.83317112351711   -1.48612866234481   -0.95686936012033
N          -1.68772762944711    0.59112439891298   -2.77953077717550
H          -2.49982641395109    1.10796194637377   -3.08864547795200
H          -1.34035213766942    0.03162721408533   -3.54707001454663
H          -0.95354232512273    1.25593074006215   -2.48712787506285
