    26
        -50.46407692  Gyration_radius:  2.36403237459 Dipole_moment: 3.028
 S           0.95879563958442   -0.67200118159424    0.76715920262206
O           0.30950531825193   -1.27912592106428    1.91191188014246
O           0.84074629195761    0.78709486159798    0.79556450911350
O           0.39333237364970   -1.19908775840468   -0.48480128587933
O           2.45920568222269   -1.03646380042876    0.78419002704154
H           2.80462469699526   -0.51445980379085   -0.00132203146821
H          -1.04767178153249   -1.80690451351347   -0.07583455284583
O          -1.92331723320309   -2.00097397531171    0.34508399233556
H          -1.68771235671146   -2.34001833957368    1.21511722650288
O          -1.19031142463351    0.69040918798622    2.71741174112275
H          -0.59760936498054    1.41756679865194    2.49885049381413
H          -0.63055744770838   -0.11533817834174    2.58407391246488
O           0.02708693276851    0.11656635793834   -2.70673072375021
H           0.22960314653885   -0.43791087405489   -1.91658145612620
H          -0.47459545826408   -0.44316306475727   -3.30148380567257
O          -1.07298462172093    1.62695404950894   -0.75348912907652
H          -0.83204188511975    1.21882275717158   -1.61003614994641
H          -0.29811926792914    1.43120394566140   -0.16867910517326
O          -2.67973347455841    0.38861682145805    0.69506768436666
H          -2.19809124987494    0.56818237661111    1.59898149324016
H          -2.09989399514815    0.94278374958277   -0.00737588837011
H          -2.49543514393141   -0.61571339293647    0.50699920121098
N           2.86066938608357    0.60208823968022   -1.20124618423066
H           2.28207300735233    1.25087211820670   -0.67698150701345
H           2.34903503290384    0.34819747732535   -2.03810869991550
H           3.71339719670350    1.07180204255955   -1.47774086469175
