    26
        -50.47319297  Gyration_radius:  2.45094714793 Dipole_moment: 1.784
 S           1.01651983820198    1.18085335816737    0.08662570080014
O           1.76302636731356    0.02394856801577   -0.39738516698351
O           0.82051851334824    1.14737557536654    1.51406748986896
O          -0.26874933569530    1.30665855689365   -0.62587627387871
O           1.86804613775687    2.42944689878634   -0.29633018638001
H           1.27138588648999    3.17833045386280   -0.10897965548306
H          -1.36620968498067    0.25319910353112   -0.00813203767495
O          -2.02491552384640   -0.39218405638062    0.34517951513376
H          -2.86732183857283    0.06481407247204    0.35548804930819
O           0.28042995333412   -0.67101011603155   -2.51317513220150
H           1.00267064711313   -0.47560220522872   -1.88731220428016
H          -0.30150141522329    0.09066735378836   -2.42545326400340
O          -0.33736098525732    3.89041622141253   -0.13713992919428
H          -0.57631723803420    2.95903050374593   -0.31275531554897
H          -0.55670677983210    4.38851097589295   -0.92788863912259
O          -0.91294059957675   -2.54324686746083   -1.01508115243885
H          -0.51195896417877   -2.00148250592820   -1.73333779919984
H          -1.54137764045751   -1.94649048261671   -0.57738326895076
O          -0.42451238798303   -0.94090792915928    2.54203134135338
H           0.06207487458885   -0.10227821890918    2.38447947180365
H          -1.22492479859141   -0.84971285459300    2.00021955157399
H           0.46650670431748   -1.86065002814282    1.61340808128705
N           0.98973103302481   -2.22950829648859    0.75764476533145
H           0.25672318966877   -2.54334597396615    0.04345733721559
H           1.65053001909936   -2.96256287068587    0.98720912624246
H           1.46663401795518   -1.39426922634247    0.33641961542876
