    26
        -50.45100463  Gyration_radius:  2.52688634439 Dipole_moment: 1.979
 S           1.40397772416493   -0.49195900156220    0.59497359634920
O           1.53652135387129   -0.71879772549994    2.00031187507290
O           0.92845813391289    0.82815154167737    0.25562924894309
O           0.45134354317518   -1.54330518239636   -0.03368595084860
O           2.70942918849237   -0.78824295744076   -0.12127592106427
H           2.46234448074666   -0.92073925177715   -1.11032061691627
H          -0.49148570059637   -1.43231355373273    0.32564707802554
O          -1.86517684484016   -1.24729569523797    0.98870875978288
H          -2.21991490357619   -2.09479037093971    1.26582516732316
O           1.92751793758579   -1.24208530383047   -2.47108900682832
H           1.47749160996914   -2.08227898951828   -2.35234191267541
H           1.22841347052822   -0.61694996943894   -2.81375448295335
O           0.00778648467064    0.31473578402819   -3.34563529806838
H          -0.64478791554938    0.47615976210751   -2.60830382107781
H           0.33211210128952    1.17818706972306   -3.60634036903741
O          -0.23832575756976    2.35123052025794    2.15033094724307
H           0.20618388912509    1.89587081724470    1.41038232771117
H           0.45194632072615    2.80094195635906    2.64056698654935
O          -0.87086634492024   -0.11064480584819    3.07359928799409
H          -0.84242304889635    0.85146648907444    2.89871629075733
H          -1.59564536209477   -0.76948388129081    1.83590883164265
H           0.04532828934440   -0.41060973360353    2.93765362347546
N          -1.52939802569236    0.88332488318966   -1.24376553894552
H          -2.09522618633232    1.72180174673901   -1.20089820966792
H          -0.71343778170787    1.03303884522592   -0.65386315660379
H          -2.06216664582449    0.13458701649033   -0.81697973618554
