    26
        -50.45993507  Gyration_radius:  2.49369977677 Dipole_moment: 5.697
 S           0.28444228343226   -1.45802792859719   -0.59182961782306
O          -0.69443817391934   -1.33791779051244    0.48220051395477
O           1.55236297077950   -2.01150097287864   -0.13012052400027
O           0.52755710328326   -0.16364719636350   -1.23342448421020
O          -0.28139473598785   -2.42220355075091   -1.66816116181422
H          -1.24009539064933   -2.17813251783609   -1.74021973610457
H          -0.18444646591908    1.10825019351415   -0.70091113425931
O          -0.54768073594302    1.97622145858518   -0.35848146117545
H          -0.34346822251587    2.62529177729788   -1.03514802833359
O          -2.68716137015841   -1.52085714059466   -1.27037112628061
H          -2.27544927533472   -1.49193350902406   -0.39089465801041
H          -2.88554708235211   -0.58816255662833   -1.47956728192623
O          -3.07017781403542    1.19484262905407   -1.15087727790886
H          -2.21011819230924    1.49286586476440   -0.79864539317399
H          -3.71097075888237    1.32435251513620   -0.44982259079076
O           0.38999576387291   -0.44341841147298    2.70594790781341
H           0.01041960872141   -0.85307735799941    1.89482410364299
H          -0.30433418368062   -0.47497418304190    3.36597766705460
O           1.44263962085555    1.66153035364851    1.50142301224017
H           1.08285031739588    0.96942025424707    2.10289675480122
H           2.36016964780566    0.81119872409740    0.65524207536095
H           0.68830744072878    1.91082318323367    0.93161470527784
N           2.92850721720060    0.14452323994569    0.00375236139881
H           2.84506564803254    0.48007847566463   -0.95297202957986
H           2.42494191386010   -0.81914649196593    0.01440589107481
H           3.89802286570691    0.06360095847454    0.29316151277660
