    26
        -50.45100474  Gyration_radius:  2.52663617773 Dipole_moment: 1.973
 S          -0.86744667847335   -0.91937584067747    0.98458929234967
O          -1.05015937703141    0.44737377344062    0.55727203133582
O          -0.47763933646992   -1.05335752315760    2.35358333481723
O           0.17607333332414   -1.59767029042822    0.05778552927484
O          -2.11416338813626   -1.73747296899242    0.69942302781584
H          -2.14302044398511   -1.85731311979753   -0.32128966693826
H           1.06861424780832   -1.11699212507935    0.11138007648584
O           2.40138823662056   -0.38259904826920    0.32197930296518
H           3.11412621775374   -1.01243735825675    0.44921617251349
O          -0.03380503266147    2.45612718057645    2.04139913477595
H          -0.47361558369655    1.80478866121283    1.46275957622364
H          -0.66201039917443    2.66431339852132    2.73500040590064
O          -1.12874311725705   -0.00617175200721   -3.16464199523609
H          -0.39559478500554    0.44736425961417   -2.66232999065471
H          -1.81688827427382    0.65108713076900   -3.28022987583068
O          -1.95932830886631   -2.07859941202222   -1.79016494840875
H          -1.68640350272224   -1.27236424358558   -2.31207837216309
H          -1.21090239450240   -2.67823716701240   -1.84364647103255
O           1.72335450981520    0.49153616051715    2.64632929274400
H           2.23779531559260    0.03675566833221    1.22545879174366
H           1.28359533205514    1.35605768771179    2.51871801554848
H           0.99257115558060   -0.13509461373548    2.79180655019119
N           0.63679024685255    1.26848677347439   -1.62733197484543
H           0.04159613764247    1.15911087932418   -0.80880087028775
H           0.83045947706412    2.25646022807315   -1.73424141301614
H           1.51335641217391    0.80822363145494   -1.41194495626448
