    26
        -50.46633713  Gyration_radius:  2.38590915307 Dipole_moment: 5.211
 S           1.60333829338843    0.27527306290991    0.21373960148658
O           1.09804827737727   -1.10136672770421    0.20836319537064
O           1.82585789606209    0.77313828340921    1.54329176073274
O           0.47124826853044    1.15932136790277   -0.46008425220655
O           2.71077642552038    0.42958747215100   -0.72079706668756
H           2.01499302867726    0.41754737144802   -2.00477621162004
H          -0.25163742478267    1.37348221813992    0.18480926113252
O          -1.47459640724713    1.76049347752605    1.17502899847234
H          -1.47926042534129    2.69437613374581    1.38979150601415
O          -0.91249415830525   -1.84605606219481    1.68046752069361
H          -0.11039388653210   -1.59972295286480    1.15523801481297
H          -0.84713774339756   -2.78782021780985    1.84334105792965
O          -2.31224070133420   -0.50327994181759   -0.34173703266231
H          -2.26065224632041    0.39236914886301    0.01239918781370
H          -2.03505216251435   -1.07564661495791    0.39262457998480
O          -0.32906951833962   -1.32246263646845   -1.96369133008162
H          -1.17049772628463   -0.98390756854728   -1.58265720155041
H           0.23898051337274   -1.44279988226852   -1.16837389214059
O          -0.32904847093345    0.45881474058486    3.07819663191277
H          -0.59733388898831   -0.44825346428643    2.85936484188276
H           0.56344754299641    0.57272026875435    2.68757515102780
H          -1.13603006667287    1.28670106899035    1.99818475648463
N           1.35335527595238    0.39752960072812   -2.87721660210141
H           1.84757652688483    0.10366054313901   -3.71374377463732
H           0.95607057926490    1.32528515119003   -2.98947013155145
H           0.56175219923262   -0.30898383054778   -2.59986856054364
