    26
        -50.45278009  Gyration_radius:  2.61009196039 Dipole_moment: 4.711
 S           2.28666633482284   -0.71588223893519   -1.35661748774853
O           2.59051862567359   -1.93838551274530   -0.65669004698011
O           2.63528520218306    0.50081666995415   -0.66232091477667
O           0.87468503498529   -0.67188868044910   -1.78997659802712
O           3.13804846577098   -0.75865567162117   -2.69879363325672
H           3.44583887979311   -1.65894324651222   -2.68490625360371
H          -0.08895827705068    0.58845968974530   -1.70632654447383
O          -0.73966034323624    1.32413937363785   -1.54636866843162
H          -0.82736041179981    1.78491236228818   -2.38160733437891
O           0.13511757014411   -1.79008551917561    0.41250031474330
H           0.93576837353978   -2.31754555164013    0.53370343306464
H           0.31487658014623   -1.37528195475698   -0.46824698964096
O           0.05539188643584    0.13989452699555    2.11390889870370
H          -1.02570280229642    0.34783294052357    2.21888100247669
H           0.11620547885118   -0.67032090155752    1.50351033392284
O          -2.46036157512275   -0.49161132241882   -0.35561684140252
H          -1.96815804537821    0.17810624422146   -0.86202351162270
H          -1.86278018468104   -1.24135938813604   -0.26819305721602
O           0.85828158387587    1.94125071525406    0.57347297163176
H           1.64742440404469    1.51202685337048    0.15849810832977
H           0.18912940947133    1.94123877939352   -0.13631531474172
H           0.43965262589078    0.93876874974537    1.54366128535430
N          -2.41926659667746    0.58075041251419    2.17729585481277
H          -2.65980925439358    0.20332426637425    1.24670981870828
H          -2.66236943121513    1.56191499792011    2.20896711350403
H          -2.94846352360474    0.08652338639184    2.88289408103250
