    26
        -50.45278047  Gyration_radius:  2.61010256426 Dipole_moment: 4.703
 S           0.27747059467169    0.59019829086658    2.67513010714878
O          -0.61522749393622   -0.40182307759914    3.21921898858734
O          -0.36003851865104    1.75326145799295    2.10518528553222
O           1.22555962785012   -0.00074375067169    1.70818197148791
O           1.17210833912881    1.08651638789697    3.89230607290716
H           0.93672114571025    0.44827583213258    4.55750973222620
H           1.66277435935702    0.63298836108515    0.31850482411438
O           1.84962133502446    0.95085563680425   -0.60576042212019
H           2.69960395241074    1.39087799826495   -0.56644944459239
O          -1.94039877965321   -0.05093491808195   -0.84899331949141
H          -1.49522456653235   -0.67292610764203   -0.17978014964268
H          -1.59570628535084   -0.39316925036363   -1.84219087595370
O           1.22143852445115   -1.56842545466726   -1.57238471926457
H           1.56945066805536   -0.70063312817698   -1.30198517938093
H           0.82652317980308   -1.94746994756522   -0.78040927559548
O          -0.62850312254924   -1.53993275995507    0.79036663746681
H           0.15405937320795   -1.00795970036738    1.08110450801553
H          -1.10774775124615   -1.63270425247130    1.62443825525037
O          -0.63958052105585    2.05161941548787   -0.46232143261986
H           0.26887431462149    1.79989526046034   -0.71315603317536
H          -1.47786689144617    0.88432608996892   -0.69941463551127
H          -0.61338285202633    2.09043602883533    0.52616165293069
N          -0.99288040631661   -0.84869844304476   -3.03726662405862
H          -1.48973447674836   -1.59851451825703   -3.49884401507174
H          -0.09049603168788   -1.20624884326067   -2.68485292015776
H          -0.81741771709697   -0.10906657753122   -3.70429898888525
