    26
        -50.45993510  Gyration_radius:  2.49351976091 Dipole_moment: 5.694
 S           1.12931696807233   -0.11657502257506   -1.12487663628972
O           2.47687630980472   -0.07520539470739   -0.56872594990383
O           0.43236714482534    1.15725762571254   -0.99135547637339
O           0.37705826644483   -1.20050684248703   -0.48821976399557
O           1.25771637133403   -0.45144918474320   -2.63475463241640
H           0.38220413312428   -0.19135817545760   -3.02161789177936
H          -0.94779551361284   -0.88777670458904    0.25718298741813
O          -1.76370999388544   -0.74388398921657    0.81939563600818
H          -2.11465669317476   -1.62011206071212    0.99245846032819
O           0.84898338029368    2.25534051490704    1.36292144168090
H           0.76421158902702    1.87640250136164    0.45794606116962
H           0.42897428294942    3.11620219072790    1.32796445246096
O          -1.07768942583185    0.58870730160545   -3.10602072268331
H          -0.70984039027275    1.14375881052399   -2.39859046573349
H          -1.86908014027571    0.17735413289913   -2.70915964941305
O          -3.16912736049622   -0.07736093243831   -1.45750348624238
H          -2.70368954450292   -0.24627315840276   -0.61646165239631
H          -3.65809884647387    0.73860428841983   -1.33887874221494
O           0.09069378548973    0.08157368967001    2.66281199084314
H           0.34957593836443    0.97481387936069    2.33840595480096
H          -0.68652028452653   -0.16244220381651    2.12217725012046
H           1.25305254245265   -0.72601571442619    2.13610350047653
N           2.05418768682228   -1.28525421028355    1.64883240286378
H           2.33215924798481   -0.73245349393693    0.75479386439144
H           1.67361660902158   -2.16630676099736    1.31138974650492
H           2.84921392702054   -1.42704110635300    2.26378133036540
