    26
        -50.45993505  Gyration_radius:  2.49385551515 Dipole_moment: 5.701
 S           0.50834653618083    1.20738828686194   -0.91743894502595
O           1.91845699426667    1.51439069730462   -0.70678760394677
O          -0.31205855788818    1.53362097472868    0.24314162417025
O           0.37064293604217   -0.20471773018848   -1.28233113218641
O           0.02041523279129    2.05829447394139   -2.12006990644734
H          -0.96870187601329    2.04250183555136   -2.04964226478952
H          -0.51858513732846   -1.14153387118357   -0.42195243901380
O          -1.00938200724515   -1.81498705397812    0.13314057451768
H          -1.04715000296818   -2.61071099616216   -0.40189196109713
O           0.85535815603304    0.84210376397344    2.49704269950451
H           0.28303531814697    1.16254731021689    3.19605249980963
H           0.46332857369066    1.17033933826089    1.65533134276020
O          -3.38819249043321   -0.61587144879274   -0.57727466508712
H          -2.57294410410796   -1.03930763192213   -0.24775138401412
H          -3.93878051614077   -0.45119529899674    0.19001709693131
O          -2.44356076548386    1.85330350456783   -1.31640688203091
H          -1.92854989079479    1.89285834454030   -0.49360240024959
H          -2.86720942515983    0.97394341522369   -1.29925975525749
O           1.24366517587103   -1.64381264767942    1.68637103872433
H           1.13170068757381   -0.78371928512919    2.15352241290688
H           0.38051540087368   -1.80654987667973    1.25688192059931
H           2.19538491508000   -1.21781078281892    0.59439172947974
N           2.79805431114613   -0.84468950161434   -0.23613043207683
H           3.79276283243473   -0.94621150898230   -0.06116753207264
H           2.52210683774158    0.19592912715895   -0.38903156057481
H           2.51134081570961   -1.32610343820091   -1.08515410551264
