    26
        -50.46802643  Gyration_radius:  2.46775838852 Dipole_moment: 5.460
 S           0.78089690258665    0.47511071552685   -0.84653274825470
O           0.30909873098042    1.42123530137995   -1.95238944951257
O          -0.17029863411622    0.54537765456226    0.27358842765242
O           0.81782862778214   -0.89500383127685   -1.36230181349705
O           2.09843715819504    0.93166234579236   -0.42800472625898
O          -1.58228721007873   -1.78577998353450   -1.92167012860746
H          -0.66471903347077   -1.50552861117863   -1.69555437541672
H          -1.49365737062150   -2.42360856098763   -2.63181406580661
O           0.96384511417742   -2.13446647364659    0.93502256398121
H           0.96462992155412   -1.78310208524401    0.01214317462660
H           0.06157486824121   -2.01704808879489    1.24251808394976
O           0.43220230859440    1.31325750209006    2.71697522147807
H           0.37693830319058    2.26952124787670    2.74883843629717
H           0.09949218754578    1.05492703085399    1.82486761193608
O          -2.76516565330750    1.12260235895614    0.10100417454786
H          -1.80779146788842    0.96130783889037    0.23166124417298
H          -3.21064491947084    0.32648086512375    0.39699068439685
O          -2.09013597014739    0.79244229214419   -2.47834744328556
H          -2.05787054630316   -0.18462579382263   -2.39767356872211
H          -2.52865655363429    1.09710007865846   -1.65662509844691
H          -0.65511057818466    1.19746904379652   -2.22044640513540
N           2.46063131180119   -0.16338038355311    1.85490822851974
H           3.38901596422792   -0.29371468666331    2.24011522988653
H           1.96670893642524   -1.07587659653438    1.65244362615417
H           1.83812732865761    0.41721005202250    2.46168616206189
H           2.46691027326882    0.33643078756659    0.89859697327377
