    26
        -50.46407694  Gyration_radius:  2.36408617428 Dipole_moment: 3.025
 S           1.06700690644563   -0.26167125994763    0.86769269655968
O           0.63687038144349   -0.02875691840301    2.23200078017523
O           1.01156003573092    0.96558482626156    0.07119945087562
O           0.24377553210551   -1.30722570835783    0.23985695627222
O           2.52591691694970   -0.76747834742483    0.87651075787777
H           2.72737477532298   -0.82684148164592   -0.10558994395917
H          -1.10793049136213   -1.36986114562956    1.12353081266554
O          -1.88924048020112   -1.16927740196576    1.69889297277140
H          -1.49871753292926   -0.99790605333670    2.56230453952044
O          -0.59872883410253    2.24735444256408    1.96715141884308
H          -0.10688622762702    1.43291330270274    2.24119595230033
H          -0.03488457336165    2.63654213638835    1.29010758444870
O          -0.50801822219374   -1.41307917740626   -2.25531098871988
H          -0.17316596671598   -1.45695838309205   -1.32868569195795
H          -1.13865098487690   -2.12951582433468   -2.34316243812426
O          -1.14021793982010    1.06747935025579   -1.38739125998394
H          -0.27219015797236    1.12077893364464   -0.91372006496083
H          -1.08994109879731    0.22253123614802   -1.87923088864634
O          -2.47128210400822    1.09066723009312    0.71988560840402
H          -1.81309728092536    1.67066888442639    1.27788530005462
H          -2.02254640878734    1.07023141740925   -0.24717643339359
H          -2.36560136793605    0.13732351491651    1.11735847980076
N           2.58438458408984   -0.58725498431949   -1.72214523573479
H           1.90617751252350   -1.18568455783250   -2.17876034495346
H           3.38100248658959   -0.47946501442507   -2.33689267891704
H           2.14703053051896    0.31890099355014   -1.58750735109237
