    26
        -50.46892611  Gyration_radius:  2.4807334173 Dipole_moment: 4.919
 S          -1.89599328061125   -0.08733684625708    1.07839862353442
O          -2.36885173055564    0.15236938609837   -0.27918727907082
O          -0.67782027697916    0.65559325978974    1.35337069941242
O          -1.80771469176312   -1.49575480138544    1.39580973644115
O          -2.99526572714997    0.50818170927362    2.05224291287696
H          -3.60066325350135   -0.22346610417236    2.09999294897574
H          -0.57943760766674   -2.15933025423030    0.58020444208468
O           0.20189541138784   -2.53415397013728    0.10500078114617
H           0.04976820968350   -3.47844775643715    0.04460811012931
O           1.62077660053445   -0.74979391918821    1.76287703936846
H           1.36209166258257   -1.57417040606182    1.32957545541431
H           0.80288310940086   -0.22567671600948    1.80350239101314
O           0.55677190492799    2.49371524341381   -0.04159180279699
H           0.55413370306074    3.32357613427314    0.43674740868836
H           0.10160871796501    1.83797610623808    0.54138850363182
O           2.66944932452011    0.58909148676324   -0.31216955218914
H           2.14255177967537    1.39724280809618   -0.25375699300976
H           2.48272163110465    0.10544115598009    0.52350582138110
O           1.23399159001258   -0.95721659398551   -1.88340606707830
H           0.18617456929975    0.09673620075152   -2.02079062761972
H           1.92440350137184   -0.44363045457626   -1.38508130301133
H           0.89420692412317   -1.60971270412903   -1.24368219670413
N          -0.54231893363150    0.91097223155712   -1.96809349963727
H          -0.88866535810832    1.16497569905212   -2.88613105228638
H          -0.09117739796301    1.71081827726186   -1.49815176267933
H          -1.33552036171636    0.59200083802479   -1.33518271801809
