    26
        -50.46248728  Gyration_radius:  2.40606249346 Dipole_moment: 4.399
 S           1.15368848956777   -0.49815871240918    0.06379583253388
O           1.28671397160431    0.81648095742946    0.69463326487625
O           1.08322790201735   -0.38898809253814   -1.37936111241321
O          -0.02523905988332   -1.18093482825868    0.61505476472240
O           2.39947744450746   -1.34873607851754    0.41121692286590
H           2.39506815547706   -1.34269052054809    1.40589855468673
H          -1.01079987949756    0.07035901567766    0.90385440502914
O          -1.50917931476880    0.92216543264653    0.98725116434432
H          -0.87410178776467    1.52538913576369    1.38521943602002
O           0.86546201393240    2.37170787406218   -1.36415478128948
H           1.10110220247564    1.89994972664328   -0.52762118308881
H           1.28355061754566    1.84237162190494   -2.05111719845861
O          -1.22496252922884   -0.42466130405457   -2.58655356792184
H          -1.70631833666323   -1.11265297979916   -2.06450017637178
H          -0.28327337096102   -0.51804923948852   -2.29671425193599
O          -2.14419623098725   -2.06095993419923   -0.73286560332098
H          -1.32502506246125   -1.90609880762005   -0.21751713012813
H          -2.87023086354408   -1.79540138825466   -0.16500979787267
O          -1.59325470190905    1.72941306731706   -1.44644059924393
H          -1.70734604379251    1.44360946329294   -0.47465399149661
H          -0.63830394810605    2.12022480120741   -1.48257116980465
H          -1.51718563957950    0.77957216613776   -2.03076009337889
N           1.86503425892627   -0.86900476477915    2.91886214864905
H           1.65913353121850    0.05884843258638    2.56103660412782
H           2.35110804462614   -0.78742866472405    3.80245999699286
H           0.98585010729884   -1.34632637942395    3.07055756187966
