    26
        -50.46626410  Gyration_radius:  2.52216221061 Dipole_moment: 6.330
 S           0.50594807744306    0.74305198985714   -0.45192035053002
O           0.23235812601174    1.69869072175342   -1.61810319907122
O          -0.59700572986467    0.84698036600311    0.50410921909262
O           0.60965967006620   -0.62367034495323   -0.96960722650252
O           1.76602877362037    1.15996405424919    0.15634824183230
O          -1.82634196824074   -1.40324729933571   -1.60419161877755
H          -0.92608473129958   -1.17755766890698   -1.28392711946675
H          -1.71045434045302   -2.08296341093010   -2.27035119214593
O           2.43360928939145   -2.32193825594119   -0.16428154060931
H           3.14769007567957   -2.24230168698120   -0.79915543884091
H           1.69352855925036   -1.77607885953963   -0.52739521143127
O          -0.32392203857256   -0.76742888512785    2.53398406036535
H          -0.88220620208609   -0.42396270938504    3.23334152552606
H          -0.52413764697112   -0.21987676541911    1.73482816202721
O          -2.72360033001248    2.36803667150335   -0.00582619085461
H          -1.99342087961076    1.78908250499783    0.29667203622200
H          -2.37381236733303    3.26063521090001   -0.00079557262578
O          -2.12678897987545    1.15336502486948   -2.33566866247771
H          -2.19019571296885    0.19444164998275   -2.13120659110583
H          -2.59875283406724    1.60745686220522   -1.60691779045247
H          -0.70926453571697    1.48899499196428   -1.98010757683810
N           2.24853166978920   -0.66186707930435    1.89326983837072
H           2.97973279095600   -0.51999570537961    2.58110927348240
H           2.44951857407458   -1.46886959501057    1.25018512949498
H           1.30831609559011   -0.80484966059658    2.33517555752714
H           2.13106658517812    0.18390788851585    1.23043224778480
