    26
        -50.45993498  Gyration_radius:  2.49354308864 Dipole_moment: 5.694
 S          -1.23215998241946   -0.06462425784028    1.01577752808486
O           0.07186706330744   -0.49860378091067    1.50295658964729
O          -2.12449577595847   -1.18462037390469    0.73930853056627
O          -1.10018778209025    0.75681050234822   -0.18997995633119
O          -1.90227861741490    0.80606185462241    2.11182205413813
H          -1.16591329623675    1.36773446843493    2.46682223620777
H           0.30160167028746    1.00539696872981   -0.80800559312895
O           1.16303612444313    1.13795603099015   -1.30079111753144
H           0.98225110184188    1.81380424364301   -1.95763500912376
O           2.07518802056689    2.69113750285546    0.78708555477217
H           1.82424975931102    2.10194465943942    0.05064288168312
H           2.95138077655970    2.41998783422462    1.06609465299074
O           0.96161592230521   -2.58848030090857    0.17534249571443
H           0.58527754109587   -1.85789716213125    0.71792276261796
H           1.77243862632967   -2.85089323860310    0.61390756993905
O           0.40034374787717    1.81315633787929    2.77704952896319
H           0.88653977488005    2.35662523794661    2.12804301454503
H           0.60556323084901    0.89613515158608    2.53059014189503
O           0.64113232543913   -1.40974256534087   -2.16960642388201
H           0.97548333296175   -0.51885729835580   -1.94504753326088
H           0.86637544268394   -1.96481814238380   -1.38781108950179
H          -0.86082540170377   -1.35782205041895   -2.01917030877456
N          -1.92853063607487   -1.26037121038454   -1.81336870599331
H          -2.47694123872975   -1.95986722721121   -2.30359748284330
H          -2.21848385652576   -0.31505014870563   -2.05243389880357
H          -2.05452787357334   -1.33510304557775   -0.73591841258776
