    26
        -50.46407693  Gyration_radius:  2.36402274572 Dipole_moment: 3.024
 S          -0.00463995346923   -1.36570107010414   -0.30810569168410
O           0.37834972034528   -0.35910064433453   -1.29992613444768
O          -1.37300697612588   -1.80412889248887   -0.49790400011168
O           0.18029056646661   -0.83087762484975    1.05018193877990
O           0.94056200631779   -2.57730448346295   -0.45860192824988
H           1.84261409535722   -2.14389351020527   -0.37497944652929
H          -1.30600574506566   -0.45959400735395    1.56553373648097
O          -2.25643777600816   -0.19028372066013    1.64173541672423
H          -2.73306924228058   -0.91512268296446    1.22365484969567
O           1.71351446340322    1.15965340984920    1.74978210904169
H           1.19181787821025    0.34884072250918    1.54212388113349
H           1.52858439981502    1.36572145831142    2.66743252435997
O          -2.28797362964139    0.10935706673097   -2.00748028387846
H          -2.07248857548100   -0.71846602760441   -1.50886786019016
H          -1.48727609581012    0.28472247049270   -2.51340078390277
O           0.23277040678333    2.04983695743975   -0.32856721138229
H           0.79398485364806    1.97881203188279    0.47044485056170
H           0.36567865896310    1.18492607788084   -0.79224347084491
O          -2.21828492991651    1.69945217273042   -0.04113279642104
H          -1.18791510691961    1.96813596109089   -0.09684124297358
H          -2.36672717779588    1.13665907219496   -0.90275174115930
H          -2.30498697706578    1.00821445361280    0.72875732761159
N           2.98844103595898   -0.97038076571961   -0.34383278911743
H           3.04833139340731   -0.46273812719880    0.53097082036765
H           2.46796587242634   -0.39151984393297   -0.99547968331160
H           3.92590682443125   -1.10522043383930   -0.70050242058107
