    26
        -50.46407696  Gyration_radius:  2.36402204058 Dipole_moment: 3.028
 S           0.10338068574970    0.20515226626803   -1.38086785675220
O           1.24856166757016    0.40035222263882   -0.48958572476068
O          -0.52516300257444    1.46598908185880   -1.72127338641343
O          -0.87128619145604   -0.70380960526983   -0.75723709450686
O           0.60620671261621   -0.47461282410305   -2.67277668598675
H           1.07163224616351   -1.28672169810355   -2.30869947407788
H          -2.06242523077107    0.25173098136653   -0.22711251817768
O          -2.60915461211502    1.00012509306543    0.12306170457010
H          -2.59766635497089    1.64480732387998   -0.59225189200723
O           0.62530302293406   -0.06569330707707    1.99290223606972
H           0.25369129471137   -0.96988378953485    1.94051093777496
H           0.98865919811376    0.09666292903291    1.08614862090071
O          -0.40640150380705   -2.41814855166332    1.15258950501345
H          -1.24890105125659   -2.77053344797106    1.44369575771149
H          -0.60454215856761   -1.84775474059213    0.37272730814068
O           0.45322894201514    3.00874310763933    0.13354918711387
H           1.32653820941706    2.60834368499486    0.20320608979875
H           0.06159502245116    2.57693103899579   -0.66670057730274
O          -0.97556837096143    1.84055118172438    1.86380556147360
H          -0.39847158029127    2.44793018444343    1.24810414147635
H          -1.74102369134494    1.51002564494816    1.24524283931194
H          -0.34355018019775    1.00096117878019    2.04407627069310
N           1.79305863529920   -2.29256974276172   -1.23253024059851
H           2.58204587151993   -2.88033122643949   -1.46975422957689
H           1.15099981705626   -2.83258880818049   -0.66450032393772
H           2.11925262272694   -1.51565816797605   -0.66633016601354
