    26
        -50.46407695  Gyration_radius:  2.36405406949 Dipole_moment: 3.023
 S           1.38539730020846    0.20365770821072    0.02033181029134
O           1.85043969987451    0.15572042020135    1.39222386095676
O           0.45192861346607    1.31177187538983   -0.19091485418861
O           0.74855199366973   -1.06953030963748   -0.35181276441102
O           2.59541775747313    0.40466795520336   -0.91750443124877
H           2.14808646051817    0.48773739423179   -1.81288106878072
H           0.35390451555178   -1.77145765723535    1.04989221456126
O           0.08899444238252   -1.96830634707728    1.98405585256315
H           0.84813672646214   -1.68014804078120    2.50176647330697
O           0.06562787079655    1.64798683912643    2.56055075096586
H           0.85106903463392    1.12787663462092    2.25571708747675
H          -0.07945420111426    2.27949761505057    1.84783796750365
O          -1.30685594103423   -1.38676705815069   -1.92545762356406
H          -1.58042329960629   -2.30382526580709   -1.87045559480577
H          -0.47648668312204   -1.31817951506925   -1.39764412422034
O          -2.02177341669802    0.50874782315694   -0.13777948536350
H          -2.01672388282093   -0.20132736528890   -0.81183945626207
H          -1.12577134748634    0.92260713834857   -0.21943003322162
O          -1.66892227335388   -0.16482953273838    2.23572301474898
H          -1.94317376303545    0.06324276044408    1.23050043135581
H          -1.03707888759963   -0.98730941880250    2.19284733980573
H          -1.04140589124037    0.62157636782916    2.49760144347389
N           0.96372601989993    0.71158548358367   -2.92547878089566
H           0.43992702574169    1.31790168987761   -2.30210236498571
H           0.39253412214409   -0.10620366440712   -3.10307624818392
H           1.11432800433284    1.19330646969078   -3.80267142687932
