    26
        -50.46633707  Gyration_radius:  2.38606465385 Dipole_moment: 5.207
 S          -0.00757486640387    0.88152842875233    1.38538227979961
O           0.01296018275864    1.56319493726926    0.08715273309994
O           1.29246409394338    0.82297071402699    1.99492058239698
O          -0.48162027836521   -0.60388611695947    1.09199023148857
O          -1.08566536830597    1.38760462214101    2.22516655283731
H          -2.25617898505575    0.77885135204162    1.59909590894745
H           0.26585062239567   -1.16112638507409    0.75268255684673
O           1.43247710931295   -2.13470283118801    0.18956036807146
H           1.67871222971648   -2.80562841372199    0.82790110056673
O           1.72982190062336    0.96895178394182   -1.77404987593100
H           1.10418713159638    1.25160887436919   -1.06099875263725
H           1.84957700425008    1.73048530674329   -2.34273745853469
O          -1.94136170118748    0.52313901287879   -1.29160683800158
H          -1.23936912786475    1.08332790077349   -0.88761337731266
H          -1.43272638685235   -0.23693100490290   -1.65415564980236
O          -0.02541276264791   -1.19569518064226   -2.07125072288324
H           0.34911935075389   -1.78120967874443   -1.40252226848082
H           0.64137669868421   -0.49950756956509   -2.19120721772956
O           3.10533039718898   -0.18252894358709    0.32110800821676
H           2.18174673451340   -1.45975128716386    0.19081771741932
H           2.89650601203369    0.28583626903746   -0.50337602401312
H           2.59581532532016    0.27565296162442    1.02292822686028
N          -3.02482523627131    0.24893417755216    1.02658024563709
H          -2.66258837055117    0.28316883184631   -0.00795208367155
H          -3.93379553546591    0.68999315850885    1.12468447381922
H          -3.04482618408509   -0.71428092003370    1.34749928282661
