    26
        -50.46407686  Gyration_radius:  2.36424132961 Dipole_moment: 3.027
 S           1.37994529721484   -0.14015791484799    0.19074798116596
O           1.63033045829909   -0.52448036337960    1.56557540924754
O           0.74855744885985    1.17829875748610    0.10901807542029
O           0.53826655238342   -1.14410321464158   -0.47899688083340
O           2.72188876877237   -0.08220881474209   -0.57090362239742
H           2.43084887147919    0.25339475445097   -1.47161105932920
H          -0.18824218483343   -1.95364781209938    0.71669534066781
O          -0.61520471981343   -2.23371039415972    1.56573082417591
H           0.11028046837939   -2.22589710555098    2.19899941964409
O           0.07085973119535    1.13654454729607    2.82498776219691
H           0.75830516299289    0.50175089469325    2.50127188508643
H           0.16568751468952    1.89382683191652    2.23738912379080
O          -1.30184081762221   -0.69391313434130   -2.27196394279502
H          -0.55651101699785   -0.91449423409990   -1.66483961750640
H          -1.77287436585853   -1.51515345144643   -2.42199796245401
O          -1.82426872258631    0.99350618022373   -0.22739866080011
H          -1.88222202777387    0.42486072165816   -1.02233720415048
H          -0.85696937785053    1.18834561256077   -0.14256568292885
O          -1.95537438368221   -0.12973188589030    1.99353999117647
H          -1.51797198093216   -1.06060146645218    1.85254046714329
H          -1.21369544852585    0.42918017050394    2.46068194313338
H          -2.03296159977078    0.32118210966338    1.02995946274631
N           1.48915577946220    0.93522605074493   -2.62844890063853
H           1.02760438653203    1.53693193403938   -1.95343952156142
H           0.78471778023220    0.31891868017142   -3.01622110213410
H           1.86168840577923    1.50613253624601   -3.37641351809441
