    26
        -50.46407699  Gyration_radius:  2.36401578528 Dipole_moment: 3.027
 S           1.39448498867251    0.11373542079212    0.04801247945839
O           1.78699394680444    0.58394522790067    1.36153716127063
O           0.56919349067162    1.10109337946789   -0.65035262034078
O           0.67119384302432   -1.16326332524583    0.15338507641539
O           2.66109323945284   -0.14259067719860   -0.79710923441630
H           2.26627078443740   -0.39290947141166   -1.68599260456033
H           0.15161976678749   -1.23087350062691    1.68245076315368
O          -0.17367187200798   -1.02714460247551    2.59586699714976
H           0.58121340460045   -0.60289388661234    3.01725564905135
O           0.07948101776184    2.51774580620264    1.71189936824075
H           0.02284548924252    2.82242739695217    0.79987901789310
H           0.83243507748057    1.87505618203838    1.69709923074460
O          -1.32201572416314   -1.95490642021103   -1.33059372932356
H          -1.67226401921242   -2.76091353254981   -0.94798735626289
H          -0.51670070118177   -1.73210590697814   -0.80659834747631
O          -1.96314011264425    0.52940143456787   -0.48158540516762
H          -1.03266046684555    0.82450477727170   -0.64812728853515
H          -1.98526753326562   -0.38774484963825   -0.82335610770501
O          -1.78339942881215    0.82828002684485    1.98646239721123
H          -1.98869532847234    0.65641847339290    0.95430381752482
H          -1.22159302645458    0.02030641907821    2.31719543343218
H          -1.10528815491472    1.61623729186262    1.96854685631416
N           1.16085142689527   -0.55677541436985   -2.88667970539082
H           1.39480327219211   -0.46935013924895   -3.86741863604573
H           0.66026986474573    0.27571232046138   -2.59179115273140
H           0.53194675533028   -1.34339243021649   -2.77630205003461
