    26
        -50.46407696  Gyration_radius:  2.36407928638 Dipole_moment: 3.021
 S           1.39705437827833   -0.02284412209805    0.09820369916010
O           1.76992010930822   -0.29177101235759    1.47264876013642
O           0.65800800915252    1.23550327648325   -0.02039479396640
O           0.59498580455957   -1.13114553524939   -0.44335713207565
O           2.67533039155489    0.08383959370655   -0.76146768196349
H           2.29833542252345    0.33291228903129   -1.65827641536181
H           0.01724519413730   -1.90787643087049    0.85105799329270
O          -0.32807502428019   -2.15970992573293    1.74494403817540
H           0.43545856949839   -2.05421565231302    2.32231858289934
O           0.17204332694885    1.33088888840766    2.73400546081227
H           0.88434830920553    0.72834201131012    2.40263583165141
H           0.16665999114343    2.05025914229605    2.09348177780360
O          -1.39285124029216   -0.94512616132518   -2.12160498580802
H          -0.59317411364030   -1.06674235529655   -1.55736943449094
H          -1.80585787565611   -1.80781059020080   -2.18471746486908
O          -1.90914579608104    0.83664058414097   -0.15732816939432
H          -1.97509437570912    0.21144195073903   -0.90794316309514
H          -0.95699210845400    1.10878456997528   -0.15554122566950
O          -1.79901776154303   -0.13723450398282    2.13425051381986
H          -1.97769297107559    0.23898506793822    1.15244080563838
H          -1.29957998662213   -1.04031065283915    2.02128039902362
H          -1.07382590137211    0.50639383411312    2.50956297678166
N           1.22710229112476    0.85997193285972   -2.78373505121851
H           0.54955215040378    0.16642416878204   -3.07771371406583
H           1.49844277557293    1.40479926888048   -3.59227494444398
H           0.76682042131938    1.46960037362881   -2.11510667279504
