    26
        -50.46407699  Gyration_radius:  2.36405472109 Dipole_moment: 3.023
 S          -0.30866064607106   -1.35778566448441   -0.14953052861433
O          -0.57335209682325   -0.39049931397236   -1.21635374216802
O          -1.50901868875841   -1.65631515192307    0.60580628278106
O           0.74650320631153   -0.84956862945438    0.74113178881187
O           0.21969243121831   -2.65732337316691   -0.79479387127739
H           0.99564432975906   -2.31668144088865   -1.33364309779094
H          -0.02721182908271   -0.33240688376062    2.06270681760096
O          -0.68147109448593    0.03103567302501    2.71194784283878
H          -1.37038064557702   -0.64118972299915    2.74178606246834
O          -3.02514541288899    0.34408562349087   -0.08500112104334
H          -2.60562019859950   -0.50270000039011    0.21050441712801
H          -2.72601570160253    0.44043535901308   -0.99551492466453
O           2.52036875079235    0.97742895164122    0.17754823451183
H           1.92577343609218    0.22278112059966    0.40051581671718
H           2.98277792091740    1.19821501042039    0.98765457040473
O           0.12818658431524    2.01775851519519   -0.52707412816482
H           1.06335703860675    1.88809737365567   -0.26775456304134
H          -0.13601374275634    1.14542500518820   -0.91437209101388
O          -1.58468052208508    1.91280494053357    1.28037373920840
H          -1.21083720557130    1.23157579671741    1.96859604030549
H          -0.81310623141965    2.07741676513510    0.56246369684257
H          -2.29514050052203    1.37050325168557    0.74928165847703
N           1.98269969470285   -1.26328996100124   -2.11305182244483
H           1.21329965547037   -0.63267620725085   -2.31506863841007
H           2.45843313263502   -1.48874928831334   -2.97733592317634
H           2.62991834543125   -0.76837775869928   -1.51082252627663
