    26
        -50.46633719  Gyration_radius:  2.38600905773 Dipole_moment: 5.207
 S           1.11723430662162    0.84445162329613    0.85614592800273
O           1.03221130701242   -0.61158648199480    1.00859811148229
O           0.46457975697331    1.54735040611527    1.92623846963628
O           0.35802596366352    1.18786972372715   -0.49397118473458
O           2.48124230835922    1.26029647281161    0.55585704732137
H           2.61297982630233    0.84953299489149   -0.83946570898464
H          -0.62483419130531    1.20988799972826   -0.36047713444331
O          -2.23893919379279    1.25933708397935   -0.22490379652894
H          -2.57908531661159    2.15031753518039   -0.31832099199848
O           1.10303359774355   -1.58244469766977   -1.41117576571032
H           0.13746144159405   -1.51727229980152   -1.58818872082278
H           1.16157608111175   -1.39790765034588   -0.44566074609622
O          -1.56750380371467   -1.32095348090612   -1.23121360590993
H          -1.92675958629647   -0.42800651684491   -1.16903269943517
H          -1.60536610122363   -1.66614870535219   -0.32399630032773
O          -1.21219928201165   -1.82970813241358    1.50184284912884
H          -0.33821076236273   -1.38370374930405    1.37122373864794
H          -1.02601048692166   -2.65974664713681    1.94238075697722
O          -2.03265953462859    0.68692975539875    2.27661991140127
H          -1.12688398984893    1.05787776731476    2.33999365146371
H          -2.29745105840871    1.03974610562009    0.75748420292027
H          -1.91913632495451   -0.27620647233841    2.22927284935225
N           2.55247160407279    0.49316809279908   -1.87319890379959
H           1.92832113366513   -0.40668435490571   -1.81254007662722
H           3.47202983238309    0.29162545841335   -2.25288780072850
H           2.07387247256840    1.20197816973049   -2.42062408021504
