    26
        -50.45916075  Gyration_radius:  2.55285192891 Dipole_moment: 4.828
 S           0.37559414373258   -0.33446420184350    1.12121727443507
O           1.53296756758984   -0.01377126276503    1.94341580549263
O          -0.89175447592907    0.10572229913866    1.65367418430612
O           0.63002832099966    0.42924657987896   -0.22506542328454
O           0.36905188726769   -1.76514883630511    0.76259193397199
O           2.82263463774514   -0.25103371185077   -1.64402593243808
H           2.08103526587975    0.19940550974893   -1.19149413656979
H           2.47461585703442   -0.54503955205741   -2.48829218863053
O          -2.20922799748879   -1.73234185032120    0.05106912843835
H          -1.30043611026672   -1.99561131520342    0.28530033258611
H          -2.45185826431208   -1.11631634436501    0.75106843246417
O          -2.61007557852070    2.28623321459850   -1.24153942926248
H          -2.26099140559010    3.02517532848567   -1.74212030319111
H          -2.31657974549220    2.42770451633842   -0.31242320099445
O          -1.68953749473980    2.58733186139339    1.25336352061962
H          -2.30980656768773    2.74707668272999    1.96697657233944
H          -1.31586403351383    1.69438722667589    1.42170600101109
O          -1.30973906187542    0.01558967863153   -1.73886750055823
H          -1.78013071867444   -0.69443806474449   -1.23995590179236
H          -1.86835850603572    0.82490251596190   -1.64578736979328
H          -0.18114218337671    0.27391428119566   -0.87849554938140
N           2.90170169306398   -1.66787676128093    0.61930176578010
H           3.61012940736195   -2.30214493967627    0.97071522430910
H           2.63575963589190   -0.87285716986520    1.29656063501558
H           3.13685540366778   -1.24494732455903   -0.30606038450137
H           1.92512833329196   -2.08069835994645    0.55716650963114
