    26
        -50.46073144  Gyration_radius:  2.41336680706 Dipole_moment: 3.487
 S          -1.47092800761435   -1.41393430435304   -0.06231691086572
O          -1.86259167640648   -1.04741555902220    1.28421958611199
O          -0.50906686729945   -2.48883128456649   -0.12537781036921
O          -1.05414063110142   -0.24788560087214   -0.84445336286783
O          -2.78561547454643   -1.91959101604812   -0.79658289989185
H          -3.04761415482084   -2.68368300137963   -0.29251887353245
H           0.52696272504748   -0.74647878599534   -1.23200976705658
O           1.47652952890978   -0.95006741251659   -1.34770664919659
H           1.51920132496714   -1.90452253698081   -1.24511756179970
O          -1.53899685068807    1.62121892407912    0.94365077679722
H          -1.49889754664462    0.98051829637363    0.20072997007945
H          -1.82387660046072    1.07564076267420    1.68492127329619
O           0.89131086778061    2.31379410144843    0.59482364493196
H          -0.06745752126581    2.12936447814454    0.88188526454272
H           0.83613489465452    2.25234498259082   -0.47323747070612
O           0.57381348768261   -1.58070411517714    2.16688939758275
H           0.55181765633078   -2.25037812858768    1.46797277397480
H          -0.35015648091498   -1.27728553219797    2.18072508294854
O           2.13673667288021    0.19626756334210    0.98972695555079
H           1.46133320637814    1.45168372619289    0.85371622340799
H           1.63609919891235   -0.41698256366941    1.58263514053539
H           2.07762855200324   -0.21588672359184    0.09855093012082
N           0.63408077397764    1.89325404025579   -1.89191963433727
H          -0.17027076297395    1.27195915289919   -1.83559597026764
H           1.41562020854979    1.33547448548466   -2.21731264104975
H           0.44234347664487    2.62212604146840   -2.56629747794569
