    26
        -50.45418031  Gyration_radius:  2.46316575947 Dipole_moment: 2.513
 S           0.27286456942069    0.16233386516849   -1.75746711826665
O           1.54360927685972    0.18377727142715   -2.39040712031607
O           0.12229857259632    1.05396189471348   -0.62580180119168
O          -0.05528613228474   -1.26895436621815   -1.29073103536914
O          -0.81194340611725    0.48380199280683   -2.79480535111864
H          -1.72696126556686    0.40623249403051   -2.36979145818077
H          -0.44002213393234   -1.30960017164494   -0.34655902448166
O          -0.90803449311303   -1.45405693288824    1.09600513668153
H          -1.02628837072782   -2.38789641574206    1.27827112443599
O           0.84949046546607    1.91799041600606    1.86261184031233
H          -0.01008902708846    2.23874525726032    2.14534696379170
H           0.77377344544240    1.75296882185873    0.90924126024030
O          -3.08921320609696    0.37231943099010   -1.62980295892897
H          -3.66394567459966    1.06363809872846   -1.96479558384479
H          -2.87930804674466    0.60767689810612   -0.68424947986872
O          -2.15533285060474    0.97889069453967    0.73849268821930
H          -1.30184555263418    1.16775482258098    0.29951500491827
H          -2.01471200206873    0.12038765210748    1.16157619360879
O           1.28129341753714   -0.74118909570924    2.14867549089191
H           1.91788032546004   -0.85700072129804    1.39789241964513
H           1.20558899676940    0.22795944281395    2.25461891397055
H          -0.04265992053614   -1.17562494364000    1.58136348567558
N           2.87380393461825   -0.88893539049270   -0.02645636639410
H           3.72173002546822   -0.35798011508692    0.13560109033031
H           2.40985836815766   -0.47308760917240   -0.83059446384859
H           3.15345066432367   -1.82411330123160   -0.29774984092001
