    26
        -50.45418033  Gyration_radius:  2.46328878532 Dipole_moment: 2.510
 S           0.92104912603445    1.46414720649484   -0.44359379635801
O           0.71680682622989    0.13878655299025   -0.99145247163108
O           2.24559924646842    1.75725021162644   -0.02463645520694
O          -0.05468439396473    1.65503038832855    0.73357437611319
O           0.47839147661751    2.50681014124502   -1.47938139518699
H          -0.48737462258114    2.34792205228666   -1.73654265521458
H          -0.73646891669100    0.90108139533421    0.82174019942217
O          -1.70616802806194   -0.24483351022916    1.08199040371845
H          -2.21647036550554   -0.03061425511892    1.86490309729284
O          -1.75331178403250   -0.57700562678483   -1.65482056994557
H          -2.10012562030550   -0.66331820654813   -0.75589190685092
H          -0.79434520175891   -0.43452248849568   -1.52461913182644
O           0.77093748614544   -2.58447564450618   -0.77252983572671
H           0.98543522704344   -1.64694875462216   -0.90273143089264
H           0.05032420997039   -2.77805840415943   -1.37661210935611
O          -1.93299365221376    1.98381794314237   -2.16244538464757
H          -2.00375739413590    0.99839497012052   -2.03004426249179
H          -2.05082583783640    2.14496794604382   -3.10084933489033
O           0.06002748504786   -1.92799530149367    1.75793061144012
H           0.31410611314624   -2.37404239698503    0.92565235018449
H           0.83179798817121   -1.34279902975633    1.96814589235388
H          -1.03397233700873   -0.97136457897107    1.36897070214383
N           2.14895916716482   -0.24993068338814    2.08972757469143
H           2.19043880511519    0.41595705314790    1.32182770882017
H           3.01453500096717   -0.77689755067119    2.07390789312734
H           2.14209000600359    0.28864055097552    2.94777993094729
