    26
        -50.45418047  Gyration_radius:  2.46327666549 Dipole_moment: 2.508
 S           1.18775519546014    0.85790701292072   -1.02105901316728
O           0.26686711613591   -0.24956818752356   -1.17558377691980
O           2.56499319630540    0.52985559498938   -1.12810077663727
O           0.91330681978996    1.52724921886890    0.33932218387657
O           0.84621046971139    1.93991796526830   -2.05482753572726
H          -0.11675804117387    2.23043038438860   -1.94363670596994
H           0.07607074536581    1.17457878707752    0.80397432538309
O          -1.09236034226555    0.61381273029780    1.60447945808709
H          -1.12434932080770    1.07256289076253    2.44576965880573
O          -1.62580752160650    2.55104686014550   -1.78853872856814
H          -2.01973110678626    2.70547872822981   -2.64959321487425
H          -2.03498357970772    1.71489514710484   -1.43225332707044
O          -2.32462515805516    0.21830841112424   -0.83017508587792
H          -2.29919080571256    0.34096857305978    0.12903871556912
H          -1.42291043917253   -0.08894400975574   -1.05242535915986
O          -0.71664982423907   -2.68123215420242   -0.40878576788675
H          -0.20629522146881   -1.95384632163740   -0.79904141306852
H          -1.62502682565665   -2.54845879315157   -0.68968719856108
O          -0.05716327661452   -1.66019629275850    2.01253624788673
H          -0.35147452069683   -2.20951359407997    1.25901729659513
H           0.90116879345723   -1.48573415895478    1.82953125608608
H          -0.72183924718675   -0.32653305509580    1.80561709762592
N           2.48328315422943   -1.11581319862406    1.27860069704726
H           2.97597162652789   -1.98186185616391    1.09313683703346
H           3.03103412728116   -0.59911342997391    1.95636966060675
H           2.49250397690229   -0.57619725233220    0.41631444889302
