    26
        -50.46073166  Gyration_radius:  2.41345929054 Dipole_moment: 3.483
 S           0.51287099863554    0.50858466721106    1.90943725512012
O          -0.67293605023753   -0.11133242217502    2.45144132324776
O           0.34713870706476    1.90756574978498    1.56809794818827
O           1.08416926290384   -0.25809910238338    0.79985122969535
O           1.63060717324297    0.44479057348195    3.03623968116846
H           1.25319860382455    0.93609717961091    3.75919412083428
H          -0.16257005516552   -1.40084033785493    0.60438566283805
O          -0.92336049318360   -1.97512439399304    0.38562306696632
H          -1.43268948657880   -1.99845744238124    1.20012990546782
O           1.45827370061470    1.71868062995258   -0.89675808686869
H           1.08349548217564    2.44895897357031   -0.39230192766286
H           1.48607961228259    0.98837029968206   -0.24104421545582
O          -2.15882455710873    1.46327588577270    0.84748610937781
H          -1.32306371493060    1.94191769963261    0.98419989000837
H          -2.12385869873552    0.79845350105855    1.55024499313760
O           0.08450029084621    0.32055543414644   -2.52921152961642
H           0.59797839860372   -0.59123331172401   -2.30069836353874
H           0.59693705333322    1.01131649601761   -1.98508954312351
O          -2.00012350291447   -0.13737829133598   -1.25021741070002
H          -1.72461176315375   -0.92758235083971   -0.73320478415828
H          -2.17130196848083    0.55952830976566   -0.56968620156714
H          -0.85793989137060    0.18947543807079   -2.04994294067833
N           1.25352136295525   -1.76817484602086   -1.69372240114671
H           0.56084414468787   -2.48187738552293   -1.49731533338005
H           1.55747785193634   -1.39537107408648   -0.79661392712927
H           2.04418755876195   -2.19209983943618   -2.16052452104097
