    26
        -50.46258510  Gyration_radius:  2.40420670619 Dipole_moment: 3.539
 S           1.24394151875957    0.36562320459705   -1.31292594691679
O          -0.11331784249113    0.80176169118176   -1.54417023084062
O           1.32058271692316   -1.06962690592301   -1.05713733400603
O           1.94348024566865    1.11907979684587   -0.28555220473184
O           2.03109484637648    0.62690398333863   -2.65694759968966
H           2.93348108364214    0.54040639395962   -2.37056316728932
H           1.92193886704013    0.03731727531400    1.00084703770136
O           1.82740734677809   -0.62570484289565    1.71517389032106
H           2.16705560185576   -1.44220302794679    1.34255622006737
O           0.83828873907076    2.47070525112796    1.81497966411352
H           1.20812684862216    1.94985875126254    2.53195079894726
H           1.30954277876515    2.18389318768840    1.01398539940776
O          -0.83858874201940   -2.18648395433579   -0.32616162339704
H           0.04185708065094   -1.82925339030890   -0.68539545011409
H          -1.60102813827933   -1.63820754324039   -0.84998002779485
O          -1.37568085310089    1.29567268574299    0.79557228486418
H          -0.76988653385505    1.89252162401949    1.27754428047813
H          -0.97715627561662    1.21414629228744   -0.08959541877249
O          -0.81400393707180   -1.02721797156461    1.86682541396937
H          -1.14947290891844   -0.13736473907661    1.57097536071979
H          -0.87332196004850   -1.78942737049870    0.67580301822774
H           0.15102510025064   -0.89948576334842    2.00912038665097
N          -2.49487653278112   -0.67717030840865   -1.50389821144506
H          -3.06227692310896   -0.96040818177582   -2.29130690054902
H          -1.78798938094808   -0.00993853595048   -1.81668119930305
H          -3.08022275617518   -0.20539759205947   -0.82501843061441
