    26
        -50.46258518  Gyration_radius:  2.40429308096 Dipole_moment: 3.548
 S           0.09857334776520   -1.02585136493208   -1.53028810439959
O           1.12372430528916   -1.53369257554627   -0.62332321019167
O           0.17522385889884    0.40805897180771   -1.68433337822935
O          -1.21866363611782   -1.51416669443348   -1.15754268390648
O           0.40690770587861   -1.64408296650809   -2.95048306957511
H           0.12211659700421   -2.54352221254275   -2.83300842692115
H          -1.00041329128487   -1.86321390017153    0.47219146238026
O          -0.81033510098669   -1.99675269641792    1.42342574044812
H          -0.02605514147687   -2.54924926390007    1.44500826904947
O           2.15738295479538    0.16682033979575    0.95198983679969
H           1.84809986596105   -0.55343683279867    0.30562979030504
H           2.16026076978043    1.07664749582800    0.38066696204862
O          -3.16969066485754   -0.14533159799867    0.17734135003993
H          -3.20155128317332   -0.68126679670370    0.97353099094432
H          -2.62515377224991   -0.64697975455830   -0.45330073407917
O          -1.16252043820317    1.66474011777738    0.30152231377977
H          -2.04382691485875    1.24181081521128    0.30540132533638
H          -0.72417718584876    1.29683590211090   -0.48678340279150
O           0.05334297710867    0.39936611457108    2.24461362918542
H           1.31461215004961    0.27804055624762    1.61630694088940
H          -0.44410701499261    0.99463078456835    1.61967970886243
H          -0.34987618949282   -0.48959291395820    2.12216923770318
N           1.92324516277995    2.24122696695074   -0.48117429944713
H           2.69974533199885    2.72725318559242   -0.90895452217220
H           1.32006086509635    2.91520771184497   -0.02515636715724
H           1.37307475110790    1.77650064815072   -1.20512936896198
