    26
        -50.45418017  Gyration_radius:  2.46319882647 Dipole_moment: 2.513
 S           1.77150529369686    0.03210445606792   -0.22166827123853
O           2.71822840722496   -0.54215500040525    0.66705949741200
O           0.76960915576529    0.87876304143615    0.39297702498640
O           1.04837276005917   -1.07981633474572   -1.00583742882973
O           2.51410557504345    0.83680084785092   -1.29738098938411
H           1.85325852768894    1.19650755883227   -1.97397840322293
H           0.03898401121027   -0.94331284135287   -1.06601625746645
O          -1.48218578225798   -0.86393664166583   -1.09420164925614
H          -1.81143316668813   -1.63340061995978   -1.56193898172441
O          -1.15225619066979    1.87310826562892   -1.14730581925177
H          -1.63234314938869    1.04578984668940   -1.29166231776198
H          -0.48012387368054    1.64141351333623   -0.47546280702192
O           0.77813243390501    1.80245656876832   -2.91282860154840
H           1.03560647709962    2.68650219556411   -3.18232845439353
H          -0.03708859724915    1.90141034823967   -2.34785707238353
O          -1.29420855751481    1.27165877089957    2.14009979138862
H          -0.42702648472298    1.17165639270001    1.71592500800696
H          -1.75194517404929    1.95835535315238    1.64960127831965
O          -1.80585958425368   -1.27848964629108    1.38220928841395
H          -1.67680282772611   -1.03137695959683   -0.09609780803731
H          -0.93462136273065   -1.67437899330979    1.64003629454599
H          -1.79795408216906   -0.38952620753496    1.78949375905154
N           0.67628336726098   -2.14126337175119    2.00208693915417
H           0.81931415688142   -2.07794040234461    3.00343545246777
H           1.37467791084102   -1.54668041380713    1.56216224094812
H           0.88577076643333   -3.09424969640260    1.72947828681070
