    26
        -50.45212624  Gyration_radius:  2.45432855026 Dipole_moment: 7.623
 S           0.66587987400721   -0.26805190009137    1.67969164097142
O          -0.22922066980372   -0.77647799715560    2.67476501403383
O           0.10605495596560    0.83108704389447    0.90559255863907
O           0.98102703917464   -1.41253396810181    0.61985371982242
O           2.01687721670859    0.06181701821845    2.16699542854892
H           2.74094602580817    0.12638685264248    1.01791641944194
H           0.11301000898317   -1.67709914514102    0.21147209495120
O          -1.33855602124238   -1.96181672449584   -0.41213707302383
H          -1.63838402903155   -2.86109203809925   -0.27015690140585
O           1.24781229802739    1.42502500813919   -1.26131767966187
H           1.14500767000884    2.36904255153766   -1.39628851700115
H           0.72789828766292    1.22233507674758   -0.41655524566629
O          -1.12311690455924    0.16595194703386   -2.23977022785577
H          -1.18020952296590   -0.66726317710019   -1.75053448739509
H          -0.23956804345346    0.51930282284264   -2.06804790237077
O          -2.68870932911084    1.61012146460234   -0.54208080247909
H          -2.11873129865489    1.16522224324059   -1.20474700947484
H          -3.58427177444360    1.55035710897082   -0.87892665301401
O          -2.51637001884281   -0.43478498049044    1.25733698885070
H          -1.79871981645874   -0.42130031286601    1.91516322623380
H          -2.50442273301270    0.43491583482504    0.80370337965717
H          -1.88771648112134   -1.37987062622222    0.22118119210335
N           3.20988225385857    0.10731792450333   -0.03097746556444
H           4.16990559021558    0.43497062279268   -0.03504740041264
H           2.58025789366487    0.69730939405927   -0.63262507606144
H           3.14343752889529   -0.86087203392793   -0.33445923168960
