    26
        -50.45212586  Gyration_radius:  2.45453389788 Dipole_moment: 7.631
 S           1.42690713553124    1.00776692368321    0.53513084631353
O           2.13426162001947    1.74369044655555   -0.46878848316685
O           1.15831731593596   -0.37299084652512    0.15802780048473
O          -0.00320816033053    1.66782303763767    0.76331630370750
O           2.00575931793619    1.08414857150206    1.88799406641858
H           0.97875170631744    0.66593617557993    2.67573992534149
H          -0.48523347019364    1.62167727588464   -0.10602411926116
O          -1.17213612002535    1.42609122630935   -1.54362729840055
H          -1.41170502467647    2.25453731003179   -1.96200388233844
O           0.16324365079865   -2.03926626361403   -2.43796103970282
H          -0.16956834266032   -2.24139616896786   -3.31402912100226
H          -0.62272886955354   -1.82776655609604   -1.89070356836784
O          -0.57744846195213   -1.62901657046097    1.48506470017329
H           0.11129019378280   -1.17572573318665    0.89746385937367
H          -0.31565419318140   -2.55138543291273    1.50952400359860
O          -1.97637777454840   -1.20781407416700   -0.97153490020602
H          -1.67877842770908   -1.33989462645915   -0.06107550982035
H          -1.86693095125499   -0.26399987811763   -1.15659685075972
O           0.97423346184616    0.56063883324053   -2.61556595768434
H           1.58126344455568    0.90902553350409   -1.93863547152963
H           0.91339237641022   -0.40804368812761   -2.47301965350982
H          -0.35625826110942    1.08141927364842   -2.05078840906613
N           0.01038787806426    0.32888039680513    3.19372325488570
H          -0.65784799807371    1.07524187706208    3.01935279742583
H           0.13611812894972    0.16434200618879    4.18678176293711
H          -0.30005018486196   -0.53391905898808    2.67823495415103
