    26
        -50.45212631  Gyration_radius:  2.45413865269 Dipole_moment: 7.622
 S          -0.57468880224515   -0.70539797419127    1.58411525718706
O          -0.66307244926264   -2.13101938110448    1.68222322777253
O          -1.16528983259106   -0.17184210217388    0.36454870663484
O           0.95638891466735   -0.27425930099476    1.53430085697978
O          -1.04956252374975    0.03113689845142    2.76870173853537
H          -0.50704373083192    1.26558579800882    2.58954136426134
H           1.35398438387077   -0.70935513929301    0.73259651586939
O           1.85167703273384   -1.41307334547753   -0.62207807932213
H           2.54794327176203   -2.05580461099987   -0.47740893382625
O          -0.55739870996740    2.18605196556973   -0.28502547033133
H          -1.31178080592054    2.56829971118655   -0.73747644080780
H          -0.82235118031780    1.22732402060523   -0.09603677694955
O          -1.23407495507953   -0.84742719427716   -2.80402918584491
H          -0.49464026128798   -0.22281739448398   -2.64570061763892
H          -1.05192530140815   -1.26666540955429   -3.64673193150001
O           0.92737290659966    0.70582149165008   -2.22541667929146
H           0.57127289447872    1.33346793120697   -1.58170501104547
H           1.40328752986533    0.03593571563290   -1.71394190655946
O          -0.35009259885994   -2.65626389089965   -0.96045718071983
H          -0.65903424861967   -2.57791144245334   -0.04048321855581
H          -0.87773662776241   -2.02411224364624   -1.49358205502985
H           1.01013667975337   -1.95260035691529   -0.82648170503774
N           0.04796467877378    2.23163926190547    2.30941134788661
H          -0.18842096479944    2.41065931911869    1.30006892285412
H           1.03582480853686    2.00156486108216    2.38097732982677
H          -0.19874012832647    3.01106279200303    2.91006992471434
