    26
        -50.45511615  Gyration_radius:  2.50336782609 Dipole_moment: 4.642
 S           0.70322663417152   -0.27860190842670    0.84502036946779
O           0.88164988795017   -1.62378531032107    0.34649604298142
O          -0.64046128216955   -0.02494493274459    1.34618079096490
O           1.65900255695537   -0.05286301765926    2.05359521223101
O           1.07898258144063    0.71821650221654   -0.17258413374796
O          -1.84079640469034    2.28631736702273    1.29105087848609
H          -1.50645821669768    1.36346545267986    1.40895502168129
H          -1.51804455385524    2.78824597611015    2.04169639852243
O          -1.04130711999184   -1.49008595505284   -1.53856440750057
H          -0.21757119803653   -1.53234078657416   -1.02152570086061
H          -1.71674984138749   -1.80950923100981   -0.90767897174968
O          -2.17725937144582   -2.19386079280457    0.81116485859952
H          -1.58668877025760   -2.91450127811669    1.04123593415359
H          -1.72998459097135   -1.38571583097454    1.12116166821517
O          -1.77972785226790    0.81214152023065   -2.47937524761761
H          -1.46731467890266    0.81549725714823   -3.38592717444451
H          -1.53680584722759   -0.08685568599333   -2.10674463448764
O          -0.58082408646065    2.37970928818090   -0.91873584648215
H           0.18852341035096    1.70890723424096   -0.60511698096940
H          -1.12616802217666    1.80436515792368   -1.59736104591915
H          -1.16571124901723    2.47924184009411   -0.08604224645607
N           3.58324786444642   -0.78101559285065    0.45635460183442
H           2.54671816549673   -0.27316580724994    1.65973896429120
H           4.48726215735070   -1.23551125173681    0.48373555122486
H           2.88562283189021   -1.44537089717253    0.13237524316815
H           3.61763702550708   -0.02797930716078   -0.21910514558992
