    26
        -50.45212627  Gyration_radius:  2.45425852009 Dipole_moment: 7.625
 S           0.61935457161176    0.65698049235120    1.58874424353179
O          -0.11303621196919    0.32659132153551    2.77379499245459
O          -0.22694860815250    1.10834946864438    0.49290447628699
O           1.35569000163900   -0.64429428602576    1.04397908819554
O           1.75473212075522    1.57360481538942    1.79331081364896
H           2.48144752922219    1.40640052046462    0.65561688627847
H           0.64919924367228   -1.31643827961776    0.84606250013496
O          -0.58847362465655   -2.28137481400741    0.50694636964881
H          -0.58271394200069   -3.09397049087087    1.01535141580885
O           0.77613603958019    1.12254633320855   -1.81882837279868
H           0.30475917242999    1.11702127918030   -0.92271483175992
H           0.37476173247107    1.84418080986603   -2.30678780354397
O          -3.03257131610288    0.29002185106090   -0.91024803645705
H          -3.83749328816107   -0.18671940675194   -1.11968148042964
H          -2.31108376615049   -0.17132474913288   -1.38835584414008
O          -0.98396965259590   -1.11796733018552   -2.02338598906889
H          -0.79062896646694   -1.65530330879878   -1.24187207444800
H          -0.27827970304165   -0.45914842127076   -2.07845100436901
O          -2.29863582537956   -0.68902398049322    1.52971106773062
H          -2.54798230115769   -0.12012455992247    0.77045385971362
H          -1.33445136697803   -1.70831085654458    0.90245391308837
H          -1.66486573029840   -0.18205629275907    2.06759885407969
N           2.98942891841653    1.12489476252424   -0.33552805735495
H           3.26643834354415    0.15269666037004   -0.22616796394261
H           3.78410925900998    1.71837088881977   -0.54851479423055
H           2.23507735066993    1.18439757306592   -1.06639222821095
