    26
        -50.46258515  Gyration_radius:  2.40436409278 Dipole_moment: 3.539
 S          -1.22308434585478   -1.34064021036772   -0.33222769569618
O          -0.22200000397300   -1.90551187868756    0.56784655858902
O          -0.62024303204655   -0.69515286600326   -1.47485492578231
O          -2.16732583707950   -0.50644300662446    0.39235459414965
O          -2.05901334689022   -2.55600680290342   -0.89632488053900
H          -2.59491205560091   -2.78418779028497   -0.14484164363324
H          -1.27303639493945   -0.08389128878168    1.75149666526569
O          -0.67472008814898    0.15571148072180    2.48865807460654
H          -0.35006941790232   -0.68156549619010    2.82698257646698
O           2.12765631597048   -0.97149515741455    0.34720142551460
H           2.21781757885110   -0.75019481356414   -0.70066325932572
H           1.23506470370123   -1.44707270352075    0.44377515407386
O           0.07613934002008    1.84946401128922   -0.88116579866434
H          -0.73389916302584    2.24035930941656   -0.49829443177224
H          -0.20867730253217    0.97473864747561   -1.20162988899127
O          -2.21701624077547    2.22232569772072    0.50587501279072
H          -2.04060713497188    2.33080259435219    1.44354267654679
H          -2.39767159912610    1.27475136260174    0.38217004144999
O           1.44697066789683    1.23122077422527    1.26256678698164
H           1.01352810840857    1.60607272171819    0.44783708974838
H           0.70110220963734    0.97586470465390    1.85104486538590
H           1.94382895211443   -0.01124918233793    0.80229790173096
N           2.09062488121294   -0.36017147788193   -2.10940535407567
H           2.62286929166714   -0.83945465989669   -2.82301397349092
H           2.20869664771968    0.63955291940575   -2.22221665069804
H           1.09797726573511   -0.56782689903229   -2.22901089058642
