    26
        -50.46044994  Gyration_radius:  2.45573926682 Dipole_moment: 6.766
 S           0.81607005766748    1.06830559787836   -0.79740023041644
O          -0.07673539512786    1.30465215998638    0.33749815597746
O           0.17386263782457    1.24640432264875   -2.06753990973053
O           1.28747725057724   -0.43580815420676   -0.66500887703613
O           2.07174375970652    1.80688736810147   -0.64360995709963
H           2.67780801275302    1.12269480556524    0.42452712108629
H           0.57638709517015   -1.00540291072529   -0.26275877468698
O          -0.38827565833007   -1.98612944138350    0.57731761961091
H          -0.28715476288523   -2.87891603724130    0.24303708427883
O           0.74801110817305   -0.14007962368291    2.32077394063418
H           0.31959844794021    0.50991651996663    1.71067175111822
H           0.38758708222322   -0.98973291329648    2.02610514271273
O          -1.43878126973647   -0.71704138150363   -2.78756485837306
H          -0.80410724734615   -0.00637276935971   -2.54607597209133
H          -2.00094002078572   -0.33511497616352   -3.46392396777027
O          -2.73137995785840    1.37544616656259    0.22699062894799
H          -1.75551298791995    1.44390955693038    0.17780449976494
H          -2.97729432183225    1.71050815566542    1.09047834743213
O          -2.61501719483953   -1.23995395198818   -0.42649183315818
H          -2.81448289272239   -0.32383109466722   -0.14642175644193
H          -2.29333253035730   -1.14748463028502   -1.34879829252465
H          -1.31019325158020   -1.68998411957722    0.26183523179831
N           3.05477937475436    0.47834383359108    1.26011398135902
H           3.51965929336512   -0.32281427863709    0.84368021994041
H           2.17331007873733    0.15732581506196    1.79076312962622
H           3.68691327255344    0.99427199072944    1.86399757498262
