    26
        -50.46258511  Gyration_radius:  2.40442754444 Dipole_moment: 3.547
 S          -0.91722606753831   -0.44407246405483    1.53718770958718
O           0.01053790541497    0.66026045769380    1.61119453791657
O          -0.27346810753465   -1.66842327931172    1.07033231875252
O          -2.11945961460581   -0.15990739759193    0.77127602958645
O          -1.39791191103263   -0.72260078758597    3.01540669681306
H          -2.15053304203719   -1.28483633942103    2.86904191178550
H          -1.81300875625518   -0.98797934647880   -0.65877828380077
O          -1.54198478340288   -1.45395425194350   -1.47624367570912
H          -1.30146881645682   -2.33781497437231   -1.19003724766356
O           1.91980349168191   -1.36831593667632   -0.17159817195469
H           1.09096312363510   -1.57518594893676    0.37817698588343
H           2.36910067125536   -0.51732308917899    0.30474146659444
O          -2.40651885851098    1.67222567772702   -1.23391370693621
H          -2.45930583101337    1.13573198724854   -0.42440839367637
H          -2.59232499614585    1.06765866264643   -1.95647219864869
O           0.25466688927836    1.87768858009020   -0.79089085399589
H          -0.66600311569438    2.05887062080938   -1.06506960480921
H           0.17170089759622    1.54923529217169    0.12248205992848
O           0.79384536507157   -0.31568474365706   -2.11425549935400
H          -0.09396147990791   -0.73805469927799   -2.07670709296878
H           0.65995422921230    0.59669630789473   -1.73714414290995
H           1.51258735439594   -0.97061704589907   -1.08884688187208
N           2.73651145870247    0.74695029266658    0.95644002441240
H           1.87158222843445    0.89791084968808    1.47781693579846
H           2.81926903078159    1.49570573944949    0.27925216824700
H           3.52265274470280    0.78583582631167    1.59101690894266
