    26
        -50.46577282  Gyration_radius:  2.41257194379 Dipole_moment: 4.007
 S          -0.77444107285924   -0.42972278094771   -1.22678820442860
O           0.40786943493709    0.42885561273858   -1.30588164306195
O          -2.00379638540124    0.31998373076997   -1.26880956760152
O          -0.69480890762654   -1.14072815879187    0.18736623727478
O          -0.69472135110997   -1.54479261750141   -2.16094735734178
H           0.26157049885946   -2.44001740193119   -1.51537205533086
H          -0.99356692073755   -0.45973466373410    0.85201284682987
O          -1.33459858888063    0.76234628047200    1.81431836491966
H          -2.18831849424017    1.10901997803257    1.53908944772364
O           1.66452557870906    0.21912251347504    2.05262116728431
H           0.80087811253645   -0.04696730538590    2.38009479742804
H           1.54625342930870    1.11107691313260    1.69913590022793
O          -2.18431973532087    2.74198458759571   -0.23187318355796
H          -2.73922129795587    3.27743076234646   -0.79957311431706
H          -2.14082913872921    1.85772468285775   -0.66136339709197
O           2.40257465485220   -0.91744312064100   -0.28515374468814
H           2.29790748401772   -0.62366798414391    0.64493371372740
H           1.79827342169024   -0.32129784496359   -0.78659573349961
O           0.40423760199391    2.30142972047310    0.54725896011139
H           0.49667472098249    1.67972863452625   -0.21091704588376
H          -0.30100628286517    2.90627761713256    0.27360465264779
H          -0.67955475545253    1.42583508162527    1.47620431256530
N           0.99405249261197   -2.97462262170292   -0.90396357553488
H           1.68460327670151   -2.18479920130380   -0.58073072546958
H           1.46338726809563   -3.70375635815386   -1.43119976582530
H           0.50637495587543   -3.35326605595279   -0.09747129707172
