    26
        -50.45212631  Gyration_radius:  2.45419263598 Dipole_moment: 7.627
 S          -1.73737099827545    0.51353765571336   -0.23781502130017
O          -0.48068985483933    1.12504088621749    0.17176800590610
O          -2.64622290561172    0.30045286264370    0.84780173424060
O          -1.33646709299188   -0.88968321186450   -0.87245620943390
O          -2.31032292632829    1.21060302808906   -1.40266558407328
H          -1.41315323271371    0.93361145683732   -2.38705691145968
H          -0.90617553919580   -1.42251918071523   -0.15056911017183
O          -0.17433323592374   -2.14770626536763    1.08079354167893
H          -0.61293040769940   -2.95443358078710    1.35569152597416
O           1.70285899152057    0.83764213155639    2.55069753747141
H           2.15895462797408    0.51444561706944    3.32952514666029
H           1.98825165755144    0.26163962479237    1.80994932159691
O           2.28525336187101   -0.89730760159074    0.53325648535106
H           2.09729951707109   -0.37382663789697   -0.25779229692817
H           1.51747725560611   -1.47178001007843    0.66500543527877
O           1.45216428965621    0.99205508251288   -1.44000723047557
H           1.98686920730847    1.77922964488384   -1.32019020780357
H           0.72597832076803    1.05842962754104   -0.73752969658745
O          -0.77706917403323   -0.29039706445252    2.72217349487724
H          -1.50252971268457    0.08755671194953    2.19412424515783
H          -0.38067377297080   -1.45649788544264    1.80246689645382
H          -0.01686135135768    0.32463088027575    2.64441365687674
N          -0.58780549434929    0.58096784631980   -3.10388458166532
H          -0.70735941719004   -0.42644700938413   -3.17291277286306
H           0.31945840012260    0.78375882938213   -2.61155546929224
H          -0.64460052324108    1.02699656194502   -4.01323193546110
