    26
        -50.47312121  Gyration_radius:  2.44414450876 Dipole_moment: 1.578
 S           0.31638820060073    1.52493912633146    1.32879923830346
O           1.51735834649076    0.72246641799084    1.31375062719377
O          -0.85854371680842    0.74334793811344    1.71351570881104
O           0.08414760673888    2.26827684005233    0.10565306471740
O           0.51184231960277    2.61364661433827    2.46177521395630
H          -0.16098986692189    3.23984492163590    2.21899682316118
H           0.24097966576043    1.57540659195368   -1.32704217052744
O           0.38262247904630    1.12976885117727   -2.20293162307235
H           0.31045815200850    1.82174291189080   -2.86189203504985
O           2.33957548736734   -0.35591448072294   -0.97135360993849
H           1.84924864118304    0.19015926715372   -1.60847428159862
H           2.21746657816907    0.09856228894430   -0.11107201334237
O          -2.81502636908424    0.24499403209974    0.01813059479117
H          -2.09518696399537    0.52319993801622    0.62544899865809
H          -3.44948163370828   -0.22610601997981    0.56061376902472
O           0.27456832409292   -1.58277926049525    2.09868955085503
H          -0.28477020774648   -0.77550605427078    2.04500903502962
H           1.15266167452507   -1.22001097665463    2.26116354420222
O          -1.34605745732520   -0.96695676495792   -1.85960530592046
H          -0.31133219143022   -1.79768457135204   -1.03429169594582
H          -1.99186952731745   -0.56043491180880   -1.24169228441747
H          -0.79379738290366   -0.22199521394359   -2.16055958994810
N           0.51805804213691   -2.18924370240547   -0.48229530185837
H           0.35019547752835   -2.06578076676483    0.55442747494461
H           1.35285874636171   -1.57308574256676   -0.73066036285552
H           0.68862558562977   -3.16085725377745   -0.71410338917592
