    26
        -50.45511605  Gyration_radius:  2.50310161188 Dipole_moment: 4.649
 S           0.06282788305444   -0.85611119129821   -0.73734290965321
O          -0.59536926401008   -1.77663804512133    0.16219840694486
O           0.54576797077465   -1.63359896982725   -1.99739707302847
O          -0.81718753384541    0.19442161017150   -1.23005811151623
O           1.26911760091610   -0.28058965567511   -0.11768691055939
O          -1.30761297846873    0.07513830952333    1.98887266462666
H          -2.15672752373648    0.23407259582824    1.53056445572806
H          -0.91207450233297   -0.65180781996931    1.47644046919378
O          -0.04636033486263    2.59487889008912   -1.88476863178861
H          -0.47878158288241    1.72368918164867   -1.70762334542613
H           0.31452003188779    2.54167179129816   -2.77162626773517
O          -0.00207595968937    2.31134453230451    2.15381888850469
H          -0.54414160571790    1.47017250435006    2.08625728110412
H           0.45498003540513    2.26406232948197    2.99542922847190
O          -3.19509589675333   -0.01765251292572    0.05635157931368
H          -2.42568367898168    0.13244962814268   -0.52208896028544
H          -3.33596296667182   -0.96695956576134    0.04910327507347
O           1.46681657717041    2.16442662223133    0.11637395610236
H           1.45155384570165    1.10234684596702    0.00585657860048
H           0.91326693221036    2.49537682171763   -0.67699269492442
H           0.88402517962695    2.31590120769763    0.96859318791628
N           1.79263071365013   -3.21308832217387   -0.34344173267045
H           0.95188245135276   -3.07884382150392    0.21164485465521
H           1.10782133578320   -2.35092961163823   -1.59588402703728
H           2.51023776950895   -2.61680110560525    0.04881730793511
H           2.09162550091844   -4.17693225896098   -0.26541149954158
