    26
        -50.46577288  Gyration_radius:  2.4126420003 Dipole_moment: 4.011
 S          -0.55521978940442   -0.84511339821642   -1.12501631962137
O           0.79858073740192   -0.29039940715071   -1.15289078055048
O          -1.49427479913140   -0.04457118445835   -1.86826981197627
O          -0.99963169413247   -0.81650334013112    0.39592364945600
O          -0.56226787320070   -2.26667028603021   -1.44354210867307
H          -0.05806092978185   -2.87610048516517   -0.21573720697013
H          -1.24992605358958    0.12953295952740    0.58835425011457
O          -1.46443250525236    1.69346544596588    0.79932819638159
H          -2.10654704163075    1.98115142541423    0.14389331558085
O           2.06345692075714   -1.25657152184264    0.92041053401574
H           1.77507869106571   -0.88910354160309    0.05212681644144
H           1.82814301093516   -0.55081929068952    1.55984863091133
O          -1.24872373810772    2.57987774458893   -2.03288976716712
H          -1.34826882406915    1.60096211718787   -2.02295358641413
H          -1.48443309352871    2.85397543957565   -2.91956679885972
O           1.13677950920695    0.93019912500127    2.20943624489785
H           1.34819689239156    1.55932312834199    1.50659564713144
H           0.18188429055804    0.96826068026792    2.31316674333266
O           0.86793658883907    2.21322722509348   -0.33514158103975
H           0.43400031043011    2.70748081448627   -1.04624610747499
H          -0.59595029521359    2.02739083217938    0.45593411514126
H           0.96403759012475    1.30286228669862   -0.69826447370969
N           0.34154706177891   -3.15623951953483    0.76296871942965
H          -0.40364837013495   -3.04705545837769    1.44441175543335
H           1.12236357068702   -2.40649480975611    0.94603754497925
H           0.70937983294289   -4.10206699126714    0.76208234919659
