    26
        -50.46044998  Gyration_radius:  2.45581893349 Dipole_moment: 6.770
 S          -0.66018451241302    0.24892363173742   -1.39505624448205
O          -1.63224044215746    1.29154699775760   -1.23541385428541
O          -0.88427677068490   -0.88881344543472   -0.50269876227429
O           0.76811178661247    0.81424497296184   -1.01723400314892
O          -0.46778201678829   -0.19488957704062   -2.77774457463218
H           0.78425534875265   -0.83039892248604   -2.70332791522256
H           0.96044785051680    0.69665898361598   -0.04721138390731
O           1.49098150189662    0.36633588089870    1.43899433065203
H           2.08313076113960    1.06654971404506    1.71840129534096
O          -1.32403876909090    2.78508452251172    0.92056162072447
H          -2.17516205984357    3.20784567533458    1.04808368036601
H          -1.41533352497277    2.26253781119105    0.09303308850646
O          -2.42202983410259   -0.87359846539768    1.66520833095484
H          -2.47031977766078   -1.80011360560511    1.90522004215837
H          -1.96191933433733   -0.84131461528892    0.80111232120393
O           1.40614675338036   -1.99685111655308   -0.02641409844792
H           0.45332037913918   -1.75171583167312   -0.12796250214791
H           1.72924385076440   -1.35962875245621    0.62793182710395
O          -0.66347209229752    0.88736957073669    2.70783793354032
H          -1.34641725300347    0.22214244836661    2.48734390944685
H           0.64720872352719    0.49839919767862    1.99367203871238
H          -0.91314192436091    1.67611154661608    2.18038987204030
N           1.79184496646302   -1.28030881876151   -2.50955763649854
H           1.98502547204965   -2.03846567460594   -3.15637227932744
H           1.75595231422494   -1.62831313748615   -1.49007343076651
H           2.48064859324968   -0.53933899066738   -2.59872358561794
