    26
        -50.46906608  Gyration_radius:  2.46922996393 Dipole_moment: 4.259
 S           2.06677377884039   -0.36496529367642    0.56313303025365
O           1.64335842952196    0.99566872053549    0.79865098293760
O           1.40534067836603   -0.93135853354561   -0.61599589901741
O           1.98585885252255   -1.23442156621574    1.71356664334039
O           3.61048479745319   -0.29361108477087    0.19033336691912
H           3.91206194052647   -1.13719635533071    0.51037364424498
H           0.42992106658792   -0.94490850269708    2.06966948164724
O          -0.53233512953850   -0.80600529298789    2.22598141509582
H          -0.65333001857342   -0.81268241135666    3.17733563541676
O           0.00337628950731    2.61038028546833   -0.37307527559264
H           0.64920932194965    2.03024044275338    0.10682330850711
H           0.25530686335536    3.51239805989088   -0.17196394897620
O          -0.87184625318422   -2.34741059158048   -0.07700478389815
H          -0.98439783637770   -2.05690845905001    0.83897422704254
H           0.01052230962938   -2.02346506253042   -0.32579172439979
O          -2.38651977551271   -0.56129986205064   -1.33111636913765
H          -1.17828865912467    0.06955102611045   -1.89407064473983
H          -1.98867301309441   -1.37919882856586   -0.94600288826941
O          -2.04780388158404    1.02492346006103    0.77742147905963
H          -1.43024147442334    1.70073049913355    0.46424480377528
H          -2.51870119925511    0.03059034985063   -0.55349856647608
H          -1.52833349338439    0.42955595403358    1.34325780187608
N          -0.19617084124455    0.52648646670451   -2.10936390906077
H          -0.18133894778445    1.47499457320228   -1.70292320732527
H           0.01267711577332    0.53827868862389   -3.10065054983975
H           0.51308907916814   -0.05036669206034   -1.57830805342845
