    26
        -50.47312106  Gyration_radius:  2.44412492041 Dipole_moment: 1.575
 S           1.95569220813932    0.53730940797347    0.27805969597859
O           1.59392079245218    0.62965818935753   -1.13609162889980
O           1.81139705138961   -0.80751748113635    0.78530194765571
O           1.27650090452776    1.54577012045661    1.06830593175275
O           3.49641211445851    0.89202524865476    0.36329398494307
H           3.46075620357920    1.83924653063617    0.29136593964329
H          -0.22409033770173    1.32856786535084    1.57630842193728
O          -1.14221781467463    1.15045519946612    1.90981855427619
H          -1.34489257018525    1.86880975537881    2.51081177584695
O          -0.51928784671517    1.98279733142415   -1.94498356521427
H           0.29358727705361    1.55734546073592   -1.59478309381126
H          -0.46414014951461    1.90972185291824   -2.89910937910065
O           0.97672296902499   -1.87146108989636   -1.59080679102914
H           1.50384356784875   -2.21934110528275   -0.86264133388452
H           1.21791180425837   -0.91791992549806   -1.59406404297693
O          -0.43435153116312   -1.50269729836149    2.02400308701779
H           0.48014303687338   -1.32681024190589    1.71695664995901
H          -0.79257078967339   -0.62571056840144    2.24103658655084
O          -2.34693357923291    0.66698096117813   -0.50225488757796
H          -2.08101068189401    0.92621336033297    0.39918894139531
H          -1.77970375524869    1.21008065770926   -1.09167458490455
H          -1.85258694815117   -0.81468576631330   -0.55016836077359
N          -1.40515292184085   -1.77630308555664   -0.40525096112709
H          -0.52670287252961   -1.85560428225981   -0.98864611275635
H          -2.05736521487343   -2.52171836522706   -0.61933812023841
H          -1.09588093620712   -1.80521272173143    0.61536134534245
