    26
        -50.46906623  Gyration_radius:  2.46794621493 Dipole_moment: 4.299
 S          -1.75961614562022    1.16303581314217   -0.50615562815143
O          -0.88433384186292    0.49818156193264   -1.47599637130673
O          -1.00191421203053    1.71250872371298    0.59376757440423
O          -2.88304687570706    0.34147691330683   -0.12089605163032
O          -2.38331502948725    2.40411987762925   -1.27990075074023
H          -3.17459697419510    2.01691466620883   -1.63905567834441
H          -2.05258834948109   -0.65554106163558    0.85384786894698
O          -1.51794245014737   -1.28698935296923    1.38739735124449
H          -2.06020243838492   -1.52741931583001    2.14103281825080
O           1.50854443249219    1.81101378142917    1.19020724568802
H           1.66759038220674    2.56862973157091    1.75431164261517
H           0.53506137173335    1.80833264899393    0.99946802628899
O          -0.57404682167900   -2.19100199896075   -1.07984098333373
H          -0.77724534919536   -1.29265257980680   -1.39125736157944
H          -0.95989610693362   -2.23036552711629   -0.19358208024227
O           1.99492534715514   -1.89559144115968   -0.46843449400817
H           1.95123502749629   -0.50416377136131   -0.95832376626364
H           1.11574766267927   -2.21551591802225   -0.78462012347124
O           1.19848150311207   -0.92698718789675    1.87822497126244
H           1.85635762243793   -1.72173201302128    0.49214507037186
H           1.36627579806470    0.02332409232332    1.81084463847840
H           0.23801586228903   -1.03701735676928    1.77831337573861
N           1.73177580019323    0.54870969236005   -1.20720984529558
H           2.25255152041327    0.86825692715704   -2.01534126606821
H           1.92189459398578    1.12810029635487   -0.37439364474465
H           0.69028767132002    0.59237279838655   -1.38455252845402
