    26
        -50.44890824  Gyration_radius:  2.4781490294 Dipole_moment: 4.955
 S           0.58519210724220    1.65640755442047   -1.02811810642345
O          -0.74807102688209    2.22650569603044   -0.80866232197460
O           0.56822000777421    0.42120023707677   -1.76244470981771
O           1.31487212850022    1.56929068526211    0.23159095564365
O           1.34437024579229    2.71752421009974   -1.91625889818946
H           1.09645746216832    3.53345699399631   -1.49498353281366
H           0.63099277871447    0.76324410644545    1.36705881053540
O           0.07411630513791    0.32124457583908    2.07717276917727
H           0.38879259168721    0.66576476462099    2.91498070941124
O           0.49074209313588   -2.24178637844220    0.90741029463833
H           1.34546811522367   -2.00523741307080    0.47817430219918
H           0.29748264455072   -1.49455903871003    1.48692472254428
O          -1.00445784492282   -1.73030120226913   -1.24045937257592
H          -0.48270549393511   -0.99490956673874   -1.60485743389283
H          -0.46973192648318   -2.07320695521621   -0.48365037229328
O          -3.09330276228699   -0.85683566336781   -0.09899897056743
H          -2.30710519085795   -1.21898768488371   -0.64758251906565
H          -3.32632968602884   -1.55144107222677    0.52065059455078
O          -2.09359530723647    1.14930545343113    0.97171056732060
H          -1.33258560882366    0.78580021204879    1.52926518656005
H          -1.60269352142814    1.65879261750216    0.19215218180347
H          -2.58470599733511    0.30704280950657    0.51345287263249
N           2.59170482679410   -1.09111083723999   -0.36973548716554
H           3.29092219765946   -1.54430655728958   -0.94485999531297
H           3.05960426772792   -0.39542383767469    0.19858610592063
H           1.96634660411452   -0.57747370914218   -0.98851837284569
