    26
        -50.46802642  Gyration_radius:  2.46763906311 Dipole_moment: 5.461
 S           0.49239797213355   -1.13967918182711   -0.10491059388988
O           1.37085293186646   -1.43915145372001   -1.22655045033692
O           0.52069351105826    0.29837714706934    0.20400369513862
O          -0.88854552918851   -1.54856763509778   -0.37045689079939
O           1.02732967789920   -1.91264266908275    1.10218672036851
O          -2.50362730595234   -0.82182298068023    1.56090450886651
H          -3.22215990148213   -1.45581144229482    1.58827493004767
H          -1.94032644353878   -1.08631233046656    0.79652688836546
O           1.90235307859761    2.09866071396736   -1.12764199991758
H           2.79212808271544    2.11125883561443   -0.77178722087562
H           1.38741462635944    1.49571086458144   -0.54059297442553
O           0.30717284375524    1.39257236593949    2.62353406079114
H           0.44808081062563    1.04527693931117    1.71847758965714
H          -0.50534163918489    1.90091531940957    2.58846775165281
O          -1.54915212612595    0.43457158627724   -1.94084774361747
H          -1.40502314365436   -0.38498743507772   -1.40914347950630
H          -1.62526804044437    1.13879741455163   -1.29222398004865
O          -0.33543800190781   -1.17074863594903    3.10737058992070
H          -0.00472962129794   -0.25358979344951    3.20635401834581
H          -1.22792070271132   -1.07381207663263    2.71191912947433
H           0.49530957581394   -1.66517341460879    1.94321101040661
N           0.90247700547826    0.41882679554216   -2.92097758763937
H          -0.13240599545756    0.52316545130559   -2.73189192812370
H           1.18096548120198   -0.43858028892069   -2.32810323579840
H           1.11479495319559    0.30567988578899   -3.90555448001893
H           1.39796790024967    1.22706602845132   -2.48054833804574
