    26
        -50.45038900  Gyration_radius:  2.46447108522 Dipole_moment: 4.456
 S          -0.54918900891888    0.64545644085747    1.49873990382582
O          -1.97533400355306    0.73046449770263    1.53220114200609
O           0.09098219138192    1.55904607899703    0.58540863290688
O          -0.12405637384609   -0.80488458231815    1.13592616715459
O           0.04071515287780    0.80550843159570    2.89202417991767
H           1.03580709482201    0.56627207168582    2.80505166910615
H          -0.73861845584040   -1.23506901884233    0.47059187250418
O          -1.70152546638592   -1.88341529484911   -0.59957741814283
H          -2.26316440353181   -2.53539575240713   -0.17692269115453
O           2.48923593072676    0.28767975625760    2.52773270348681
H           2.54940221066341    0.13676715451767    1.53079349888114
H           2.98296071767379    1.09076038247034    2.70965192128468
O           0.47744122481143   -1.19218753798465   -2.20001437135204
H          -0.22556690567265   -1.59757731310943   -1.66978587348763
H           0.39717613061123   -1.55480925769702   -3.08425646629349
O          -0.77255337197937    1.31132067511718   -1.97223754084016
H          -0.45303720888249    1.62095975713593   -1.10874891757056
H          -0.23585100767131    0.52743406422236   -2.17530551314960
O          -3.00356746473395    0.27549442373889   -0.94772956020114
H          -2.90511559384832    0.60128927915963   -0.03709152772670
H          -2.33992042367202    0.77779553790212   -1.47624171129113
H          -2.29859675323507   -1.08013361740620   -0.80653810627822
N           2.47627452900528    0.19102284338915   -0.10137031365726
H           2.13952609938888   -0.65837723006955   -0.53895930095700
H           3.21012689767083    0.56873230543024   -0.68784340990291
H           1.69644827213468    0.84584589451262   -0.10549896905925
