    26
        -50.45038902  Gyration_radius:  2.4644875666 Dipole_moment: 4.458
 S           0.86953050221581   -1.24908885420712   -0.80536142211001
O          -0.34543769285397   -0.78634935776630   -1.42850070601617
O           0.75182324154887   -2.49156527278548   -0.10923926493325
O           1.37986837814054   -0.15307427095323    0.17144767145592
O           1.99195422972955   -1.30156011969065   -1.83113197783776
H           2.11823243106160   -0.33648206011835   -2.15936455305243
H           1.01073768373589   -0.25630866637049    1.09803198936118
O           0.39534326270709   -0.41993772712158    2.54275113881102
H           1.06255994566293   -0.75865093435982    3.14213775874839
O           2.13848972341537    1.09447793480538   -2.62699527204277
H           1.38905670857314    1.55172416983532   -2.12745211242354
H           1.89054220865115    1.10438188024909   -3.55440759400448
O          -1.16759831812690    1.66175377706174    1.53806319970983
H          -0.55321582686527    1.06246886589627    1.98875925535499
H          -1.71820531670304    2.05253638624900    2.21918637180089
O          -2.41759470368408   -0.52598869871035    0.29981899124104
H          -1.83841401114846   -0.68616819106586   -0.46335283360339
H          -2.12680056869162    0.32609242720103    0.66477850652116
O          -1.15436092241852   -2.30738663251464    1.82644597862313
H          -1.82259469351210   -1.78302973710489    1.32583544472505
H          -0.55999745909538   -2.67598247107332    1.15116453949902
H          -0.25406411828221   -1.19000956979065    2.36993410913909
N          -0.01306768803693    2.02820789079951   -1.43549271302584
H          -0.42509506890000    1.09838993908186   -1.48645184885603
H          -0.65759600213534    2.68394802224989   -1.85945965456145
H           0.05590407503135    2.25760126019052   -0.45114502247564
