    26
        -50.47163234  Gyration_radius:  2.41173253645 Dipole_moment: 2.538
 S          -1.10478928368754   -1.01351821643145    1.25511391125619
O          -0.20511845160464   -0.80658709521406    2.36807849891397
O          -0.75722090023077   -2.15785918134676    0.42895936100404
O          -1.30928770499215    0.18581726296808    0.45827048915485
O          -2.52968760594519   -1.32986059511990    1.88432145952101
H          -2.33324591001166   -1.98960618177421    2.54171191332616
H          -0.10544481281294    1.14468045528181    1.17834580216809
O           0.62693810475968    1.72973808375196    1.45917240507443
H           0.84116688499857    1.42759011996864    2.34504433262833
O           1.86223097729042   -1.74085366762565    0.97197622960944
H           1.31179199140045   -1.39344100632804    1.69654537902467
H           1.23839674119883   -2.28370453158911    0.47450550993991
O          -1.15273020219948   -1.30156402970599   -1.99704900491440
H          -0.97897524952966   -1.71281500109235   -1.11552850686751
H          -2.01365654738278   -0.88717151668618   -1.90514594474731
O          -0.98473789604702    2.50013130688671   -0.90702170521129
H          -0.44022924912980    2.93272720102578   -0.24082582530824
H          -1.38869422949021    1.74932850164294   -0.43932789821868
O           2.35151967253494    0.55823235877537   -0.27348694381733
H           1.89525039460888    1.12299472349617    0.38364045017403
H           2.34209686627684   -0.34138414093033    0.12831117646781
H           1.37316746864189    0.59910723707005   -1.45052491798192
N           0.57524567570914    0.72260608957445   -2.16706542584156
H           0.94079847636870    0.88756010341275   -3.09805275291441
H          -0.00761781218026    1.52968707529515   -1.82947397688151
H          -0.04716740855689   -0.13183532529988   -2.15049399557280
