    26
        -50.45038904  Gyration_radius:  2.46440206233 Dipole_moment: 4.457
 S          -0.11056287116165    1.40475963698895    0.98918754822713
O          -1.40161092879991    2.00862627532787    0.88542709142181
O           0.70037024724478    1.50043498262146   -0.19902244512956
O          -0.26763275434289   -0.09434245451195    1.36851790360873
O           0.65415143001126    1.95196868149928    2.18526767971767
H           1.48458113600191    1.35574092102902    2.28475008806547
H          -1.06663028595766   -0.52193519897077    0.93926909608476
O          -2.31256719684904   -1.18353981736614    0.23026452396320
H          -3.01505558542601   -1.31735247133526    0.86882088518475
O           2.70516491910924    0.47442035702381    2.26448458357315
H           2.59289358914168   -0.12288961708386    1.45769403564870
H           3.46685375061314    1.03058821948047    2.08499937172653
O          -0.22951554884933   -2.14168187805483   -1.35999759117429
H          -0.96431598625688   -1.97452534418602   -0.75019849546246
H          -0.53312683580870   -2.80902334522927   -1.97830559495729
O          -0.48272988713759    0.45296629439127   -2.40166075028712
H           0.02243745675486    0.98010630887368   -1.76097465086033
H          -0.28364203196109   -0.47227748120805   -2.18231256333115
O          -2.80174449460998    0.88878591386071   -1.16387959298177
H          -2.60812201539441   -0.40662450714174   -0.36431960618598
H          -2.49067848465377    1.53089763898502   -0.50352498978815
H          -2.06926407235265    0.81553677477332   -1.81976325799387
N           2.35508539684420   -0.79307957649613   -0.01407901150514
H           1.86044688658689    0.02161097709324   -0.37260091256924
H           1.69314153655135   -1.55984990658243   -0.02900707407032
H           3.10207262070379   -1.01932142376542   -0.65903627090264
