    26
        -50.46122705  Gyration_radius:  2.45830082651 Dipole_moment: 4.857
 S           0.13241930493305   -1.57845299207500    0.97384517631103
O           0.26604761670646   -0.23283124272594    1.49823203077515
O           1.33351053840578   -2.03341681953276    0.30166315528588
O          -1.06688753930949   -1.75233656406577    0.16857522516821
O          -0.03935242749604   -2.52421050304548    2.23704643277762
H          -0.76278544127538   -2.14218568249587    2.72666489308656
H          -0.48359137869617   -0.97226025961716   -1.16851931277268
O          -0.13963714146735   -0.49216751141417   -1.95168215386669
H           0.12952561269697   -1.16939397953956   -2.57482067836311
O          -0.00347295620700    2.30500934915914    0.43315646110366
H          -0.01553164001705    1.48436040464855    0.95141827533376
H          -0.82551301764588    2.26879803055081   -0.10384125645660
O          -2.04014132614806    1.58934925828683   -1.16044880993517
H          -2.56564090456102    1.07021156964393   -0.52373554219361
H          -1.52359483322347    0.94811612576826   -1.66285569974932
O          -3.21268321857954   -0.22727729817417    0.54134897684821
H          -3.94327895150752   -0.70735556184571    0.14739474421506
H          -2.42767371710448   -0.80506134630923    0.45674076827725
O           1.67533278924854    1.48259550316324   -1.36705214952401
H           1.07463814622139    1.99876561804247   -0.75315197914794
H           2.39445092386067    0.73926518473484   -0.34305159415848
H           1.07830699192605    0.82279300679901   -1.76571869717867
N           2.72050277994169    0.13503686147084    0.53276372286738
H           2.18851641516928    0.48327907582774    1.33438604885710
H           3.72205611879308    0.15170608901191    0.69038420777304
H           2.33447726536737   -0.84233630627174    0.38125774464866
