    26
        -50.46122703  Gyration_radius:  2.45822359941 Dipole_moment: 4.857
 S           1.20042364927511    0.47365488688874   -1.33904065126420
O          -0.19657796688736    0.85624075902757   -1.26492869574526
O           1.37962602751152   -0.88083867085855   -1.82343304570805
O           1.92107838100840    0.73177430320916   -0.10167594079756
O           1.85290645192836    1.41460819184366   -2.43833571714150
H           1.62591513234223    2.29880066543847   -2.16329720165473
H           1.30602958073152   -0.56329325299385    0.72309676846470
O           0.92332303897873   -1.32172941064257    1.21354244406223
H           1.59643593636251   -2.00452802447327    1.20403755693225
O           1.12336596098126    2.61978602036551    1.59196498332775
H           1.42212423538250    1.96423441041186    0.92998005184947
H           1.88595206328937    2.81587996737077    2.13914546649360
O          -0.55677203947908    0.73335767657888    2.68149697060482
H          -0.02256871637285   -0.03477680267372    2.44687837354232
H          -0.04787518776624    1.51263023068261    2.39006327628484
O          -2.21675220594134    0.48901469199631    0.58769760630339
H          -1.80251379998496    0.68250131634751    1.45741640518907
H          -1.56915769817492    0.80062185201397   -0.06477162738747
O          -1.60680151545966   -2.02769803273710    0.41723857128131
H          -2.02293511952820   -1.13129275745984    0.58297250317920
H          -1.37633734564006   -1.86550026226619   -1.01029960010016
H          -0.72000402389022   -1.94217542496984    0.81351680962577
N          -1.11516655715652   -1.52159523309425   -2.03610810441142
H          -0.05741308567894   -1.43406039950012   -2.06071621605483
H          -1.43950488248272   -0.55361431330236   -2.10443746601054
H          -1.48680031336437   -2.11200238720076   -2.77200353086283
