    26
        -50.46264615  Gyration_radius:  2.56109566128 Dipole_moment: 5.089
 S           0.35476817930404   -0.73030676392382   -0.75680867329467
O           0.39955588657138   -0.54980121557154   -2.28505958314518
O           0.34543635882015    0.62141505329359   -0.15519313349612
O          -0.83123259816332   -1.47355855047429   -0.38316721053508
O           1.59157132995584   -1.42043304867609   -0.39958746168591
O          -3.16396394227388   -0.37381408789305   -0.87318518956723
H          -2.31072023479373   -0.80948920840015   -0.64428182979085
H          -3.84987732506721   -1.00661997184051   -0.65727157455946
O           2.26046465666478   -0.40539344881310    3.20709006378656
H           2.53866858445283   -1.30208546976280    3.40265936886746
H           1.30007455622624   -0.46178460354039    2.98562321231445
O          -0.18188066116989   -0.57954143389017    2.16351677836831
H          -0.09553522930101    0.05026754345743    1.42572939085574
H          -0.52490555506686   -1.37156616194176    1.73595076817994
O          -1.75384231841665    2.18227881619926   -0.83528750901046
H          -0.95117213632662    1.72728531242643   -0.52168897814641
H          -2.49139604807296    1.64201918016172   -0.52809975021684
O          -1.74671799220049    0.63494606000091   -3.00147856958379
H          -0.44255552164500   -0.08971728882002   -2.62732827774216
H          -2.44754266817820    0.11214788976528   -2.57907485913822
H          -1.70408303762784    1.44267651113705   -2.44145386384688
N           2.79163227892138    0.46248597295560    0.76235479329852
H           2.48948662440346   -0.43835519726044    0.22229714694800
H           3.68469886410941    0.84538932414501    0.47381755314425
H           1.99143368419477    1.06979101337714    0.51890696065255
H           2.74763425466156    0.22176377388253    1.79102041734448
