    26
        -50.46138223  Gyration_radius:  2.40839411049 Dipole_moment: 4.038
 S           1.56763609367951    0.65225901108726   -0.76156073172024
O           2.52654861399352   -0.42261381796061   -0.98749950986182
O           1.25100033547349    0.73752647295624    0.66906392386650
O           0.37416915978226    0.49748276157710   -1.57187643411575
O           2.24318979163517    1.99713463303424   -1.18031911598245
H           1.53294681945748    2.64231092909256   -1.00203048450224
H          -0.80695815378058   -0.50954376075678   -1.55127884704224
O          -1.62240140145833   -1.08097815090690   -1.50108672321552
H          -1.78651760706489   -1.37757309554182   -2.39732217510919
O          -0.01624121797048    2.97995993980119   -0.11504738188266
H           0.35557560248229    2.34520451089582    0.51458417647553
H          -0.85345928388130    2.58300118713415   -0.39141539129937
O          -2.44141066046250    1.28124730919895   -0.21645787028658
H          -3.36092918806395    1.49047383863447   -0.38720942452564
H          -2.22877377914998    0.48239428632024   -0.73049020085824
O          -1.03724458489613    0.05670003708461    1.87427394309148
H          -1.68412047014939    0.55339238977295    1.35072997390503
H          -0.17277942937441    0.35559198967374    1.53018631660171
O          -0.73678321340988   -2.30370077403377    0.76358706331733
H          -1.08254880435415   -2.07116926231055   -0.11786576823769
H           0.75759447484054   -2.16580184349705    0.84136316509986
H          -0.98268804915834   -1.51829632921387    1.31999457700120
N           1.81086210434304   -1.90432001366069    0.98960191057537
H           1.84006531295581   -1.18909628296660    1.71682199088814
H           2.17670319188635   -1.40047906441714    0.10745949791202
H           2.37656432264531   -2.71110692099486    1.23379352990574
