    26
        -50.46122700  Gyration_radius:  2.45834890087 Dipole_moment: 4.861
 S           0.21210059700072   -1.82663117532758   -0.27440263907648
O          -0.38185363070891   -2.20713158742185    0.99201004508846
O           1.27591647578152   -0.85329348536439   -0.11796312062455
O          -0.77548917661577   -1.42670050480778   -1.26524661862093
O           0.90174684509244   -3.14007971162891   -0.83914548226331
H           1.38086469859711   -2.84746377312464   -1.60977137211480
H          -1.53338359018685   -0.31528289054137   -0.30250156651725
O          -1.96686944847047    0.35585163713602    0.26654143031819
H          -2.76454583832519   -0.06004698774189    0.59827054216835
O           1.36968386951267    1.89762302654566    0.15072764105026
H           1.47740589617132    0.95917080854083   -0.07256566655919
H           0.74058502389094    2.23994217062409   -0.52195830593917
O          -0.68989310924158    2.28825672588565   -1.52398038582639
H          -1.32467817658946    1.80862630390717   -0.97865317982870
H          -0.43307843527224    1.67578152860996   -2.23816605783892
O          -0.14813990971578    0.22053489441923   -3.25617529177053
H          -0.34034053629951   -0.42029390254296   -2.54238543940702
H          -0.82394017420721    0.09032059673149   -3.92383543420456
O          -0.30273109809848    1.53810480938377    2.10227140162602
H          -1.03821402304861    1.22207586575653    1.54567457568532
H           0.40780731179044    0.32408036725797    2.47555903146232
H           0.36396622172026    1.87762339753338    1.43558703848200
N           0.98099511879310   -0.62883026469017    2.51902597188103
H           1.75426997421367   -0.52786434042207    1.85664194158019
H           0.36403736919564   -1.36878138494327    2.07294175898849
H           1.29377774505192   -0.87559214378557    3.45149918226669
