    26
        -50.46138228  Gyration_radius:  2.40836466841 Dipole_moment: 4.038
 S           1.43291415264481    1.01081102487830   -0.62207616709443
O           2.65234907108164    0.69784176907346    0.11339299073503
O           0.41304191185209    1.51392559390116    0.30579108025132
O           0.95359471513998   -0.12271211460734   -1.39046354069914
O           1.76046031350295    2.15425144492724   -1.63477524028556
H           0.89924475289484    2.28477586595448   -2.07505689616180
H           0.32472996049841   -1.48724150910987   -1.00015283712815
O          -0.16743768455816   -2.32667312636700   -0.78313886532526
H           0.26166195505543   -3.01710369386729   -1.29034046629087
O          -0.89780275371020    2.03468183095691   -1.98749150579133
H          -0.72780135114456    2.07219645101137   -1.03496609035606
H          -1.29326689773145    1.16359661934404   -2.12768824084616
O          -2.23253820567320   -0.57057351340405   -1.52919103292710
H          -2.94029189729330   -1.01640701703554   -1.99692758060978
H          -1.54400506800594   -1.23498289922467   -1.35031364238084
O          -1.81369551987610    0.26969048449068    1.10927066424614
H          -1.04331456069059    0.81729233746159    0.86102811449838
H          -2.21346891566338    0.02625663462517    0.26066731649486
O          -0.25148863431904   -1.70137086509844    1.86430045071390
H          -0.14292381676152   -2.11604537564543    0.98859118262252
H           0.85162115203562   -0.72831910327537    2.17166117776246
H          -0.98402896376379   -1.04655807157970    1.71775319944646
N           1.52898123120820    0.11325238164555    2.35243886458077
H           2.11676659581070    0.28991314409176    1.46411652508581
H           2.10784286436602   -0.02874639026481    3.17423394629952
H           0.94885557310380    0.94824809712478    2.43933659316368
