    26
        -50.46044997  Gyration_radius:  2.45583191129 Dipole_moment: 6.769
 S           0.32267037892739    0.57713965951205    1.41656200589960
O           0.95617881686715    1.85079128418048    1.23239288596362
O           1.01365521316126   -0.51438546514252    0.72949525256478
O          -1.12813250389045    0.62791463526386    0.78810202610585
O           0.04903504976590    0.23179793188606    2.81358415161594
H          -0.93033973803325   -0.76747261028226    2.67540044533399
H          -1.11777969336500    0.36234526437547   -0.17165608321103
O          -1.27970352416753   -0.25996523011259   -1.65011069637802
H          -1.99878853992631    0.18937210422055   -2.09733728863688
O          -0.73910908068121   -2.32408752366221    0.13499920066082
H          -1.12567969205357   -1.88662284638391   -0.63817493632674
H           0.06935145645417   -1.78451042308335    0.31815006671881
O           2.80764804159127   -0.22938510725646   -1.21093112556672
H           2.22518607747340   -0.25899828033084   -0.42398293665786
H           3.16570117259739   -1.11289811820330   -1.30894464985472
O           0.57400039886770    2.95641365326801   -1.13520037167230
H           0.68025428128062    2.57155607708399   -0.23697462134584
H           1.27178945420272    3.60922980109559   -1.21496147813604
O           0.80035094781470    0.78316194328338   -2.70290655096239
H          -0.43446334799651    0.07491009986843   -2.10886983520025
H           0.71754883029733    1.65770540489557   -2.26589502365319
H           1.60418198490301    0.38957474925548   -2.30731569741010
N          -1.71509098478178   -1.52658453873287    2.42401142402547
H          -1.41384696367278   -1.94318818333120    1.47668032000413
H          -2.59683640940071   -1.03326627643596    2.32095140436295
H          -1.77778164623255   -2.24054802523512    3.14293212175424
