    26
        -50.46122704  Gyration_radius:  2.45829175467 Dipole_moment: 4.860
 S          -0.25261244495454   -1.49998567343358   -1.06953333755256
O          -0.51840580356846   -1.40563216417072    0.35311612447324
O           1.15644952630226   -1.67816530099284   -1.35969994443016
O          -0.85342021327157   -0.41319086558340   -1.82781377645379
O          -0.96558779649864   -2.83106523940965   -1.55907934299391
H          -1.86604461641580   -2.74584946310741   -1.25755796820075
H           0.26355897928635    0.72741929778073   -1.39464409212831
O           0.91812374797476    1.40412938228587   -1.11937455129598
H           1.52359934146241    1.49621805927924   -1.85708285932371
O          -3.00645747648097    0.86721380733176   -0.93621548671800
H          -3.39092693096312    1.29417947090516   -1.70383440509018
H          -2.24368877629297    0.34935819092356   -1.26357952539350
O          -1.28512438824778    2.48070297067252    0.47894709109570
H          -0.53289188554221    2.38459911817127   -0.11714893993818
H          -2.01686428753971    1.98253712630848    0.06960784276754
O          -0.41642973084806    0.63257036673336    2.21940191085719
H          -0.84230900393569    1.40101595570164    1.77947326413039
H          -0.62297490041599   -0.12171389358464    1.64445006762728
O           2.00846074618961    0.98838650753470    1.36565532360887
H           1.75643943066097    1.28523305629167    0.47179447717722
H           1.13777831978416    0.97906451790747    1.86154993530440
H           2.16249374116800   -0.45287888144484    1.23184429958525
N           2.04425315308055   -1.54650756766239    1.06398209753823
H           1.15075035035689   -1.80627978699716    1.48947489649970
H           2.81939165117881   -2.09961787108797    1.41253347247380
H           1.87243925752520   -1.67174112032782    0.02373342639070
