    26
        -50.46247239  Gyration_radius:  2.42026227175 Dipole_moment: 7.258
 S           0.83038786232731    0.62761945654294   -0.94200531986628
O           0.87518296541045    1.96848983856633   -0.41516992417850
O          -0.49672038244565    0.24268717519471   -1.41184094941979
O           1.19596906308445   -0.38020253643371    0.21725079612521
O           1.85759195863732    0.33891401917448   -1.94207026559050
H           1.82387065064678   -1.08386866283951   -1.94642935778396
H           0.39201157536707   -0.62605393611734    0.75523337323711
O          -0.86239360507693   -1.22752227149405    1.54734223500070
H          -0.58053675725351   -1.48630532419519    2.42677236586572
O           0.57690605920465    2.05975345179631    2.21719449880079
H           0.75885434290797    2.01178884506420    1.25386553844541
H           0.83925002446455    2.93968246161824    2.49153481765597
O          -0.77043022844039   -2.30454763093975   -1.04678249459673
H          -0.87882747194941   -1.35869745565816   -1.30895111865728
H          -0.92841361505729   -2.28763395757705   -0.09173547114330
O          -1.94966302396441    2.25406189162240   -0.42932190604016
H          -1.59581687779767    1.48602070786994   -0.91391438812832
H          -1.19787386388919    2.85172954752803   -0.37091050519423
O          -1.93624090922124    1.05762300276809    1.97888924279069
H          -1.10480011784333    1.48321611000238    2.26352733505267
H          -2.15486593394680    1.49367675499073    1.12633817426821
H          -1.39699050836879   -0.37539618042182    1.68468177970058
N           1.72059808126748   -2.18617548674189   -1.82891664827891
H           0.70888641574902   -2.35105233801110   -1.48813995881736
H           2.38011839767005   -2.48624415347475   -1.11708622309789
H           1.89394590853373   -2.66156331886145   -2.70935563615596
