    26
        -50.46122694  Gyration_radius:  2.45828248566 Dipole_moment: 4.863
 S           1.64243563091082   -0.41922951669748    0.76472356378167
O           1.76416144458606    0.83669025184619    1.47828765418004
O           1.37807311429310   -0.23103499849748   -0.64894500575573
O           0.70769117723496   -1.33955327058609    1.39426441382324
O           3.07084902031075   -1.10580714556086    0.85420484009849
H           3.00555800458893   -1.87122040748633    0.28936909258611
H          -0.55007530208594   -0.26749852536431    1.47255852516760
O          -1.29786242425432    0.36669660794652    1.49917559066769
H          -1.32726525802496    0.69699449245970    2.39885504717516
O          -0.53997521077928   -3.22091610426284   -0.01063015538214
H          -0.83462945745498   -3.87027381897002    0.63042729015721
H          -0.03279992800096   -2.55110772170600    0.49067964013451
O          -0.89357907969732    0.24110540512572   -2.15422126763409
H          -1.56764477827488   -0.37918872107452   -1.79881305310805
H          -0.05772672118590   -0.05676772264893   -1.76075096676347
O          -2.43518307542354   -1.31853641175655   -0.60813625461913
H          -2.30951898390384   -0.78780065681939    0.18741257193087
H          -1.84103241960747   -2.08625691016561   -0.51467270240497
O          -1.28955075915597    2.22158871753727   -0.52443895168972
H          -1.28993624979212    1.55791881662923   -1.27519257705184
H          -1.44725066531791    1.67080164432908    0.26454158643717
H           0.14328496230392    2.47509518897812   -0.50050375976052
N           1.25505375388012    2.42461006945148   -0.49634790179496
H           1.70551527423405    3.32308204266653   -0.63074965716839
H           1.51303175238230    1.74190463616819   -1.21350907454656
H           1.52837618822504    1.94870405845276    0.41241148154312
