    26
        -50.46247240  Gyration_radius:  2.42023601201 Dipole_moment: 7.258
 S           1.26526006056954    0.30068413769816    0.53001807519407
O           0.34738058050204   -0.40455179474792    1.41898820178936
O           1.17754663646440    1.73430894725066    0.65048959735116
O           0.85395362293592   -0.10610735562754   -0.93927822074325
O           2.62405685605616   -0.23021759670834    0.63228944223991
H           2.43814665994250   -1.52874569838241    0.08090848961954
H          -0.13410418732019   -0.21790042025391   -1.02504902998020
O          -1.67562248643378   -0.60814532167815   -1.21155945281982
H          -1.92689171142566   -0.45736085550391   -2.12474635770028
O          -1.17001164618681    1.62937165489387    2.24499630994590
H          -0.49897400477265    2.29097917824343    2.05062061547973
H          -0.70310135853274    0.78355724790442    2.11651939736105
O          -0.36102809895303   -2.60772983882571    0.26090730961612
H          -0.99240272498575   -2.23178054334989   -0.36947772430755
H          -0.20933564362005   -1.86670972328475    0.89565239707139
O          -0.44341161927457    2.82711131722181   -1.13968087650995
H          -0.26600071893628    3.76884708630464   -1.12986310359101
H           0.20956605902670    2.42323349598765   -0.52820304089107
O          -2.55339058073072    1.50348294236659   -0.05768074694708
H          -2.10392238022004    0.15298564811424   -0.69382843668218
H          -2.24336720844089    1.53213713464802    0.87383791951060
H          -1.95224126133303    2.10881069935261   -0.53273217392230
N           2.16598759378164   -2.49684841462202   -0.39714655797208
H           2.71962113764559   -3.25723462610056   -0.01433468736785
H           2.31777210176388   -2.40356508184410   -1.39713379028290
H           1.11451431247894   -2.63861220905550   -0.19451353546870
