    26
        -50.46455195  Gyration_radius:  2.48394374201 Dipole_moment: 2.471
 S          -0.03345999481363    1.98636958444461    0.13832624523879
O           0.14538078696453    3.19910220145784    0.87474777062684
O          -1.14493930056359    1.15830207667547    0.56485734370602
O           1.18477526515757    1.20607343457139   -0.06708054275753
O          -0.43752726607128    2.45436682849596   -1.36900109040391
H          -0.36229379308331    3.40312789556284   -1.32300571197872
H           1.44374473450408   -0.15055937638176   -0.85955975074392
O           1.58264990510819   -0.97064259467069   -1.39986647416484
H           2.52200782569656   -1.00762626854479   -1.58500611872615
O           0.99110957434012    1.10243261505899    2.59098154246824
H           0.48617382919780    1.90982823548365    2.71899077772379
H           1.26637273542276    1.13719187186279    1.66131382947925
O           0.16851817060847   -1.48506964572646    2.59473703002407
H           0.68968804122681   -1.83608064214057    3.31835758831190
H           0.34514635481158   -0.52278679595452    2.58275951471178
O          -0.56727399778565    0.01260753838165   -2.81611461446806
H           0.27781266433096   -0.39930994601703   -2.56223086313360
H          -0.52521570653917    0.92088401062042   -2.48696515406991
O           0.03463633812080   -2.63434971859559    0.16574830817203
H           0.73644717217841   -2.20413973444771   -0.35329097051778
H           0.12078551668853   -2.29458779239443    1.08215192532624
H          -1.16749426269166   -1.79081320229843   -0.34469330185403
N          -1.81853322235387   -1.01433118294023   -0.69977928654824
H          -2.79497814488823   -1.27979419395180   -0.65263251973498
H          -1.52002358010635   -0.74299887826838   -1.66869425534251
H          -1.62350964550638   -0.15719635028789   -0.10505121134040
