    26
        -50.46691592  Gyration_radius:  2.45752358204 Dipole_moment: 2.728
 S           1.68934198179393    0.24247308693137   -0.91852838859544
O           2.71539768049326    1.06113008109888   -0.33628639263095
O           0.50957616464884    0.96162491880880   -1.36001737409136
O           1.33237045055116   -0.93553398491078   -0.13194142262064
O           2.33669846096233   -0.37877195946236   -2.25598122739378
H           3.08713378032824    0.18568217236202   -2.41296229723089
H           0.76985577636865   -0.95536941306809    1.40031221316579
O           0.39329567598646   -0.88072164897313    2.30744035871336
H           0.74989650050231   -1.61448090424198    2.80994821122396
O           0.87318040906513    1.80233892547564    1.50852896067576
H           1.58427357883987    1.66809761264278    0.86249908344609
H           0.81851750804476    0.99230622224279    2.03294840047446
O           0.08746111655566   -2.36363112195119   -1.96087551083186
H           0.58816845215142   -2.17805319317463   -2.75795280203301
H           0.62740387277317   -1.98592503647819   -1.23416136232011
O          -1.72276881612822    2.17066710869146    0.94846749692336
H          -1.94805391192231    2.96204605139092    1.43882528943018
H          -0.74361749295009    2.09777176438808    1.00078121552707
O          -2.16045900120495   -0.41966225717010    1.42667751053921
H          -1.90954357440170   -0.55856349782339   -0.10137420097383
H          -1.32347898940429   -0.66209211551747    1.86371046321274
H          -2.15987644488498    0.56129112723869    1.41008163461413
N          -1.64831996603129   -0.47500077213576   -1.14046803158625
H          -1.24896028639384   -1.36323797905326   -1.50712475506683
H          -0.85210120079534    0.22635015928112   -1.20987752971025
H          -2.44539173495374   -0.16073534659478   -1.68266955285232
