    26
        -50.46044994  Gyration_radius:  2.4557607756 Dipole_moment: 6.765
 S           0.45220725064687    0.41714085400831   -1.43690139462500
O           0.09567822634297    1.30551866741413   -0.33041128801283
O          -0.64118466713945    0.15915732509419   -2.32877227226238
O           0.90151948185752   -0.94302764737144   -0.76585946156004
O           1.68118885986264    0.86385676696609   -2.09716544197177
H           2.64865605696544    0.59861136261661   -1.11229152852232
H           0.39823496133584   -1.11636871455304    0.07579403734145
O          -0.17070021984799   -1.40652522461858    1.55624049667258
H          -0.23326553669697   -2.35477331747814    1.68220993223926
O           1.61288137079094    0.72468819857192    1.68511780230689
H           0.99100364194167    1.12058257696704    1.02578097828593
H           1.14466290355162   -0.07056345300562    1.98002986153868
O          -2.45133563008984   -1.53144820516983   -1.41295712713471
H          -3.22832013086315   -1.37302533395852   -1.95204273680921
H          -1.75729263035253   -0.93828329582821   -1.77727377655321
O          -2.37793830092245    1.88292603730138    0.45238554319864
H          -2.24942441833153    2.60346622524997    1.07102062592147
H          -1.50243416094768    1.71448022910511    0.04680106879838
O          -2.59510742490103   -0.71574413682205    1.14564519046863
H          -1.13447507486978   -1.08828600038697    1.47331932214991
H          -2.64395994914853    0.25038494856279    0.99817573378040
H          -2.66793602306354   -1.10275618843366    0.24702579699290
N           3.31402826815501    0.31636102514146   -0.25604929477031
H           4.14732529088870    0.89564399594613   -0.23338177541370
H           3.55368604876830   -0.66460181437294   -0.36414334379420
H           2.71230179607845    0.45258508904223    0.62770305173333
