    26
        -50.46691587  Gyration_radius:  2.45757821804 Dipole_moment: 2.732
 S           0.79340202351627   -0.71039200333806   -1.61960832460779
O           0.54548742231558   -1.58187818086718   -0.48698883406361
O           2.17948939028668   -0.47197048531405   -1.90935494751556
O          -0.02977854517580    0.49467658011065   -1.55516298247791
O           0.21201308258541   -1.49674764940286   -2.89933410837288
H           0.99920445915629   -1.80666634262778   -3.33618977654690
H           0.17216244560040    1.76812661005809   -0.55450410903290
O           0.33386661830730    2.47582265913744    0.11134199530375
H           0.13761252535740    3.30678086739760   -0.32347577097330
O           1.04318475443753   -0.42346064622666    2.70470139183998
H           1.54013989017753   -0.22314725417747    1.88032575555283
H           1.69408058849794   -0.40792935416504    3.40732427644774
O           2.37195244651283    0.55570924664663    0.59154718544159
H           1.90407820350429    1.39285975437614    0.47162974903936
H           2.43594791930039    0.14450071444804   -0.28469492531597
O          -2.43049776400945   -0.56083077732475   -1.79235612587054
H          -1.59649908386789   -0.04495499617873   -1.81781327777526
H          -2.28962636548976   -1.28166214641143   -2.40966722624779
O          -1.01103237465306    1.17770540575323    2.11474885150428
H          -0.58849033002867    1.77563484568684    1.47101469599678
H          -1.50474332866682   -0.05384123803393    1.30448917364743
H          -0.26725516111813    0.69463248189524    2.53397596646562
N          -1.65572647028975   -0.96507969081650    0.75512906291900
H          -2.24128028939224   -0.80911202494376   -0.09087923024596
H          -2.03880124431144   -1.68409341754777    1.35874349187820
H          -0.70889081256809   -1.26468295813095    0.37505805302155
