    26
        -50.45275417  Gyration_radius:  2.51540664166 Dipole_moment: 2.625
 S          -1.41365261635691   -0.67867356145778   -0.52397138277187
O          -1.07011732561974    0.72427494279017   -0.62323151222515
O          -2.42421063981072   -0.95662244483119    0.44799420196301
O          -0.13044724164457   -1.48323328459631   -0.21722297665350
O          -1.81686362567768   -1.21749547878251   -1.88326916769006
H          -0.97456568059242   -1.19860849262116   -2.48930376741082
H           0.24128517945420   -1.24491609207387    0.69094121160566
O           0.70914478873004   -0.88651927714909    2.12614756694450
H           0.81143841099551   -1.69203237770930    2.63799627863243
O          -1.49783769995831    2.42697950488004    1.42843972075190
H          -2.31970418545982    2.88243588321035    1.23867948610758
H          -1.28633284612538    1.90402690034488    0.63272081126342
O           0.24435007492175   -1.04423556774240   -3.30604277831076
H           0.75994819520504   -0.32740862297255   -2.81251390132123
H           0.01387840157527   -0.66843676766220   -4.15901480936575
O           1.26380654574925    0.88350459647168   -1.95000670896967
H           1.91334015153636    0.63128879962276   -1.25073512866314
H           0.43470535258803    1.04433021486753   -1.46831040981417
O          -1.56478954066491    0.10116347821976    2.78927450518756
H          -1.54093230439763    1.04237639997192    2.52083727490190
H          -2.08061405971824   -0.34362474871819    2.09356579194776
H          -0.12679728145075   -0.44090783627261    2.48247999521331
N           2.83369821603000    0.20709141017966    0.17085828396499
H           2.17947743305990    0.00399198158724    0.91924232826981
H           3.44434755420624    0.95092120113705    0.48424610133306
H           3.39744475343384   -0.61967076068324    0.02019896511244
