    26
        -50.46264608  Gyration_radius:  2.56147936893 Dipole_moment: 5.090
 S          -0.33524007010025    0.62525969082089    0.85240206191129
O           0.66444571716684   -0.23494420920311    0.18165705173672
O          -1.28236608880073    1.16311387396396   -0.10272506547675
O          -0.97975689131889   -0.11766722450086    1.93230353033175
O           0.43286435033480    1.77375859040121    1.53153253394860
O           2.14362429235060    0.97681199889777   -1.72861749425703
H           1.68659923344741    0.43086637439015   -1.06329464822693
H           1.45444260193080    1.27253939238012   -2.33509417810635
O          -1.39334795451414   -3.64782116670996    0.56818158394534
H          -2.26151869983280   -3.69844352882014    0.97241916656253
H          -1.45723746175653   -2.94744625981570   -0.12456024318714
O          -0.32466359497759    2.47715356190446   -2.16370273709372
H          -1.05826550913183    2.84792071977961   -2.65535710481379
H          -0.72505083780811    1.96607741453177   -1.42298756101893
O          -1.39611170880637   -1.47302360870310   -0.96670581972115
H          -0.52253816815952   -1.10616133173632   -0.74159327132843
H          -1.98833715867876   -0.72514004006233   -0.83370965739601
O           1.57554547807312    3.14626744537770   -0.29426935309802
H           0.90053158897585    2.36279023326106    0.84423997594580
H           2.10016937116992    2.44669809096943   -0.74502725598701
H           0.86035467248542    3.32527461905207   -0.92629579362214
N           0.41060237699755   -2.21506531293660    1.87427166674699
H           0.97890592539515   -1.76974599891106    1.13453028377041
H           0.96558530618111   -2.56325209776868    2.64771161353682
H          -0.23316591818965   -1.36799047362363    2.12424161919701
H          -0.21607087243236   -2.94783077293173    1.44044910569973
