    26
        -50.45275414  Gyration_radius:  2.51551013165 Dipole_moment: 2.622
 S          -0.03850302970031   -0.10791536234031    1.64900990835823
O           0.91072170955849   -0.78033222119018    0.78698952408378
O          -1.00040778771697   -0.98424623468313    2.24063469609165
O          -0.74339176509417    1.00358239802906    0.83914594051720
O           0.69209828357743    0.68307871593658    2.71732518541509
H           1.20291381259466    1.45166179308498    2.24257655464370
H          -1.30428672587657    0.61316727814054    0.09571358743104
O          -2.20452729687060   -0.06029489171837   -0.97353711633703
H          -3.10068471273120    0.27349549556764   -0.89108980759873
O           2.11160367101500    1.10700757490203   -0.70616084771517
H           1.81044891663178    0.28899941897767   -0.27554868918122
H           1.42079677355729    1.30051303995449   -1.38418268795989
O           0.32883613510988   -3.15131916094970   -0.36679273571643
H           0.63982284857026   -2.29551744795335   -0.01713372437813
H           0.73854424333507   -3.82706346864000    0.17586315223355
O           1.97255319921012    2.45125870567851    1.47753219554477
H           2.03602751115500    2.03505427395265    0.55778276078938
H           2.87049666461447    2.49209540640181    1.81509386945801
O          -2.17555378366124   -2.33768762381385    0.20913648142563
H          -2.23182464648477   -1.00696626956064   -0.61659978255440
H          -1.38462233392681   -2.80777079387268   -0.12552066710794
H          -1.91314480365281   -1.99959656922517    1.08361561792635
N           0.06095033973198    1.40557486544386   -2.47452672184590
H          -0.31438548874730    2.34448731468478   -2.51758951915314
H          -0.67005983955716    0.79526600920556   -2.12442836464631
H           0.28557811537693    1.11346775393981   -3.41730880975437
