    26
        -50.46043383  Gyration_radius:  2.44928168346 Dipole_moment: 4.310
 S           1.80226314028514   -0.75737611488880    0.81075681706632
O           2.30045297510022    0.43905546248085    0.16135676909646
O           0.93381330117925   -1.54507482406957   -0.04717150411817
O           1.19109031603427   -0.47751617834459    2.10003455438489
O           3.06548985518313   -1.66637275922520    1.09994211206479
H           3.61471196491885   -1.05023142339910    1.57131730636070
H          -0.16881259384934    0.26785239504240    2.06600782539270
O          -1.02139584098715    0.79213327452308    2.04138024745236
H          -1.39871258335154    0.72455703441756    2.91966621252613
O           0.57670320147130    2.46188756039294    0.37799905124912
H           1.30171619217729    1.80588987765409    0.31395770514653
H           0.05083964032060    2.19595327115308    1.14194329180789
O           0.99299947784996   -0.08063648401800   -2.25053798958539
H           0.97196678968391   -0.70800552591210   -1.49901259081349
H           1.77952169833834    0.44732259701348   -2.08163171634257
O          -0.89304925083113    1.66705381657298   -1.63913529055961
H          -0.25874144995922    1.00732423970434   -2.02127010508751
H          -0.35470305628120    2.15613347402576   -0.95974444298748
O          -2.36663991260959    0.36152525390022   -0.15570745016833
H          -1.78013369833787    0.97301016556041   -0.86647555133327
H          -2.14686319754929   -0.66145777395466   -0.42455060120847
H          -1.92843208593994    0.52493311870170    0.72672914446558
N          -1.69318717726557   -1.99118996784662   -0.78373146368513
H          -2.17004439489022   -2.77354456790416   -0.35519179965250
H          -0.72028991248024   -1.98378810512758   -0.46038159357062
H          -1.68056335821056   -2.12943780645250   -1.78654893790098
