    26
        -50.47064462  Gyration_radius:  2.48504967619 Dipole_moment: 4.193
 S           0.13915703775367    0.69296536499082   -1.02712107177495
O           0.91963622309884   -0.53866990392881   -0.88110019466951
O           0.67934133959541    1.73432571653647   -0.16332599725627
O          -1.27459525833829    0.44470861701126   -0.75302243856404
O           0.27650534492759    1.18389454101552   -2.48407562181727
H          -0.41709378673358    0.65247276692469   -2.97356336971973
H          -1.46251281756984   -0.11752212484944    0.72368007087306
O          -1.53865417795012   -0.44177041430851    1.66081587088092
H          -2.41459893383865   -0.82406071220270    1.73642200621785
O          -1.60354841949254   -0.35948484888531   -3.29274410966966
H          -1.16011918951928   -1.22894811310631   -3.20132429741160
H          -1.96977132460643   -0.17222823493173   -2.41516655753881
O          -0.56428717006916    1.97147306220862    2.51949250250943
H          -0.48939162316114    2.34308650940021    1.63146066668234
H          -1.06250394622084    1.14219090919588    2.40076431815493
O          -0.01031046866653   -2.37782645304449   -2.53135804558460
H           0.36512818909613   -1.75655626418380   -1.86877527253280
H           0.73100806054681   -2.69434590586623   -3.04989901087217
O           0.99388020674968   -1.51169572106527    1.57653507367568
H           1.04108376581439   -1.34083887268164    0.61018734948786
H           1.62241720949715   -0.13686173427522    1.99239393667444
H           0.05352379461896   -1.38788733118456    1.79116419678635
N           1.79973549389056    0.92018566703177    2.02714483170346
H           1.02947297668422    1.36825387255009    2.58162935414558
H           1.58761483022348    1.26581915069988    1.04524670239257
H           2.72888265337792    1.16932044719429    2.34453906816360
