    26
        -50.46043433  Gyration_radius:  2.44962859886 Dipole_moment: 4.323
 S           0.92707010483320   -0.35443087163890    1.86987070404473
O          -0.37191372105361    0.11337103328591    2.31131487122629
O           1.51987122383667    0.50012243989169    0.85537602993750
O           0.90835978576994   -1.75113991548483    1.46612255796580
O           1.88452217913130   -0.26278140258950    3.12703501879898
H           1.37812944587078   -0.75606223310629    3.76246861650683
H           0.14751920585642   -2.07846903600916    0.15499867262807
O          -0.38430964571553   -2.29142058046813   -0.66620265060595
H          -0.15032818018845   -3.18886079291403   -0.90729527502296
O          -0.36040623315687    2.35063293162011    0.63847511459615
H          -0.83768845195954    2.20565820335043    1.46127404045371
H           0.40545846653929    1.74451082873280    0.70731448414207
O          -2.33383225813203   -0.75529483446405    0.72646875948049
H          -1.92687067912902   -1.52481831397726    0.31029685758608
H          -1.69522819802654   -0.45299949152799    1.40515132908905
O          -1.96917579250925    1.12304300998165   -1.06398671259555
H          -2.30911290433793    0.45497037993239   -0.40966892723559
H          -1.39300198601038    1.72068486181444   -0.52203858720369
O          -0.40756598201220   -0.29141218162172   -2.34572234529771
H           0.54518129162071    0.20445552464760   -2.20821201044751
H          -0.38937602125391   -1.10917495434054   -1.77258304853044
H          -1.14178475891904    0.36804792085707   -1.85240187476295
N           1.77646909343735    0.88220704617126   -1.86842162201319
H           1.71034426155879    1.88172447632971   -2.01520199916692
H           2.62370184191951    0.54567799411320   -2.30664423054819
H           1.84396790202892    0.72175796741472   -0.85778772302526
