    26
        -50.47063526  Gyration_radius:  2.48980426163 Dipole_moment: 4.087
 S           0.70932350859993    0.56352733601472   -0.90366344345900
O          -0.74757084070246    0.55529786402613   -1.06043034610760
O           1.26060347127412   -0.74408424069623   -1.22981023286582
O           1.07932359911620    0.98193033861593    0.44789087712839
O           1.29929765256408    1.57798962141955   -1.90680174219576
H           1.20491765029611    2.45415714512475   -1.43177194433358
H           0.39633044973159    0.05427484681429    1.54001901421032
O          -0.01888968853521   -0.56762969862162    2.19698078487718
H          -0.00033033488685   -0.11096017386731    3.03967694711986
O           1.57826252079425   -2.57643953703695    1.27220087477560
H           1.05050530672799   -1.94646728012738    1.79939029737735
H           2.11378029773626   -2.02697613320458    0.68979286504933
O          -1.72312683085828    2.95174904810883   -0.54144071957135
H          -1.43539811502709    2.02771052897335   -0.71410915576254
H          -2.26450890829843    3.20597328722484   -1.29035613383212
O           0.88216567347273    3.54745767718479   -0.31754507362310
H          -0.09693785824780    3.58834608033924   -0.34381725921704
H           1.08616980801930    2.88278212375934    0.35764350550495
O          -2.02301837147414   -1.22202756245986    0.42383412364187
H          -1.10163864951869   -2.31093386805568   -0.23529507577354
H          -1.56368751896005   -1.03713844443029    1.26013635831696
H          -1.73988973901357   -0.49083208738683   -0.16836170718422
N          -0.22889094537459   -2.77799747796171   -0.64480467327680
H           0.31884813816387   -1.98640323880581   -1.10006316637511
H          -0.43524144833531   -3.53466628843802   -1.28591811986944
H           0.39960117311506   -3.05863988701847    0.14662314607284
