    26
        -50.46043439  Gyration_radius:  2.44962128873 Dipole_moment: 4.320
 S          -0.26635821083032   -0.21115787275567   -2.08950079494831
O           1.04655940757131   -0.21434039763329   -1.46732816139353
O          -0.99500563478983    1.02084032977777   -1.86068524277861
O          -1.04131526836477   -1.39018768089951   -1.73778622626540
O          -0.00715249577874   -0.29236048264582   -3.64894376561368
H          -0.89321281985354   -0.18068641491624   -3.97466173064593
H          -1.30198128402282   -1.61873363342172   -0.22619186343975
O          -1.50766244280198   -1.73644325476061    0.74661666847550
H          -1.84452463538929   -2.62871238886441    0.83956425123905
O           1.05470180106897    2.19390679185864   -0.36871068930893
H           0.34805871969895    2.61217443077610   -0.87023643640127
H           1.15394713889995    1.31927055360807   -0.79746875102769
O          -0.22480166046022    1.64000158504373    1.87840575269110
H           0.35962952444455    1.93751463660457    1.13490268923607
H          -1.11833111536907    1.52835968582802    1.45510715410884
O          -2.32095089409176    0.97577979120180    0.45311813835407
H          -1.93416391768794    1.05588923819240   -0.44345274660029
H          -2.39819974697761    0.02861868640067    0.61999185897476
O           0.36663944945823   -0.72398895786890    2.25742216968055
H           0.12347819608630    0.34921638197980    2.17557607463843
H          -0.35373337864884   -1.17832764571582    1.73564631008186
H           1.28181189313031   -0.84363690095399    1.69134327920555
N           2.43127588728913   -0.91940461896169    0.81703668827372
H           2.94065616879350   -1.79310715496642    0.80026229580823
H           3.08550475323057   -0.16577609312998    0.98734467434284
H           2.01513056539454   -0.76470863377780   -0.10737158668752
