    26
        -50.47679054  Gyration_radius:  2.36802522089 Dipole_moment: 3.209
 S           0.86506565376131    1.27698538742497   -0.13759241421177
O           1.60181307253732    1.22206527096226   -1.38295534232705
O           1.38101242651340    0.31705691463044    0.83909427022603
O          -0.57064548409293    1.03735820007932   -0.35678672863569
O           1.01863138224829    2.69609405020481    0.45536814791828
H           0.28739103443586    2.74598792434461    1.12571756480344
H          -1.11528538637169   -0.43984718378383    0.28913451429317
O          -1.36807171218034   -1.32339394982236    0.62734603261536
H          -1.31225549162936   -1.23498455284661    1.58563664604230
O          -1.07339230623083    2.35672086237235    1.94939688430582
H          -0.87542378312110    1.57814464005999    2.50562167018808
H          -1.44338154412617    1.99383276918935    1.13313416308913
O          -0.18494621232746   -0.03315641449747    2.89582693121133
H           0.33570490279974   -0.14404003691467    3.69246642784669
H           0.46292693034768    0.05938448883566    2.15346257250257
O          -1.67079395207280   -0.46028536007025   -2.29648167348910
H          -2.13120707015304   -1.07681882130953   -1.71856462097189
H          -1.39632281680530    0.27462425397133   -1.71262981867591
O           1.08049976446527   -2.16596382551596   -0.09460870697531
H           1.43265641778973   -1.35518280251774    0.32480408831335
H           0.13731973978601   -2.16159820889495    0.17629338500480
H           1.05112758810341   -1.67417074069730   -1.58382040520638
N           0.91815269743140   -1.05201241313284   -2.44695776756829
H          -0.11539300779841   -0.93325108377073   -2.60439990796499
H           1.39935721134642   -1.40451791519483   -3.26667399556683
H           1.28545997538742   -0.09903147297406   -2.15183191698057
