    26
        -50.47679045  Gyration_radius:  2.36812779679 Dipole_moment: 3.218
 S           1.23099014856140   -0.28494311447948   -0.89613310502919
O           0.82989899564943   -0.22886060281560   -2.28634445849341
O           0.69967871325694   -1.47280793807019   -0.22676024828730
O           0.80750768745913    0.92355034042487   -0.17016470869932
O           2.77421072054807   -0.35020373040617   -0.83901307410556
H           2.97953445112628   -0.11095359096901    0.10262335809799
H          -0.41464929485305    0.62884519857466    0.97768002478505
O          -1.15506136022287    0.41904182507660    1.58311881509592
H          -0.74991283095312   -0.11388635192980    2.27686009402650
O           2.76528587560771    0.43918867730073    1.63144226337906
H           2.12186146500697    1.07626233619796    1.29216495389022
H           2.23501705649616   -0.22019811015223    2.11987567257303
O           0.90731641413841   -1.40469885079697    2.37299739636566
H           0.80777606020190   -1.50485733448600    1.39356142337431
H           1.10917966882461   -2.27801518028311    2.71153255025064
O          -1.33876968695445    2.44731421237859   -0.70607788216893
H          -0.43075958626311    2.10899599216660   -0.57410531376148
H          -1.76681562184589    2.34738242369265    0.15003898493844
O          -1.96921610042866   -1.38758113747575   -0.23287585154426
H          -1.95824883573041   -0.77205449569377    0.53137863165160
H          -2.00512860058237   -0.44087754111293   -1.48338959074640
H          -1.03769465056740   -1.68072481607008   -0.29166058919375
N          -1.71885529058413    0.28961684201257   -2.21413055962582
H          -0.69367898305226    0.08764529149682   -2.40992866958086
H          -1.74956563787888    1.23608747221343   -1.75527891835196
H          -2.27990077678717    0.24673218307025   -3.05741119847062
