    26
        -50.47063506  Gyration_radius:  2.4897960321 Dipole_moment: 4.089
 S           0.34543193014342   -0.81488556023390    0.92486726189249
O           1.04844839510244    0.46657775887224    0.82050271563419
O           0.80624069384734   -1.73039250981582   -0.10940537242584
O          -1.10182458015034   -0.61479586818487    0.86099609869035
O           0.69032814915979   -1.44771950443258    2.29022757901798
H           0.05279617156225   -1.00054194016011    2.91928380617511
H          -1.51391712686917    0.15179375839447   -0.46661475993054
O          -1.74113329087186    0.60203648232494   -1.32476348748758
H          -2.61989093823880    0.96632050878452   -1.20622294360491
O          -1.11905860952285   -0.08423885070513    3.49284582087567
H          -1.58990103648285   -0.20551402848784    2.65454929906044
H          -0.72959921790227    0.81359792422444    3.43610952982437
O          -0.95303441432276   -1.63039620793986   -2.68008980977896
H          -1.39685028798271   -0.82817256840794   -2.34415408063220
H          -0.81527887659860   -2.18284791065007   -1.90310604904867
O           0.26051305503083    2.09086320345099    2.74537855354803
H           0.57461779509962    1.55448168106020    1.98379798294480
H           1.04806001581367    2.40211339129616    3.19419510869472
O           0.77632009301615    1.70688168030298   -1.49833957798526
H          -0.18626150619705    1.60203281701056   -1.58227631417075
H           0.96565953706113    1.42402339478583   -0.57660484472212
H           1.31975854453557    0.39435540217389   -2.17002647955390
N           1.47861688428702   -0.64753388158192   -2.36175465709439
H           0.62854369811768   -1.03012349493894   -2.84250105344883
H           1.42794054545972   -1.11392323507966   -1.40581833883889
H           2.34347439699514   -0.84399244248602   -2.85107599740062
