    26
        -50.45341040  Gyration_radius:  2.50233597535 Dipole_moment: 2.442
 S           0.46300369101047   -1.25822579449060    0.90434827107156
O           0.34484315671969   -1.02505091999727    2.30807757299604
O           1.21382359129176   -0.25462259170120    0.19052003896186
O          -0.94659307129083   -1.37256569824869    0.25796937084891
O           1.03100799512945   -2.64419641854983    0.63803462245755
H           0.87543796444529   -2.81794460159572   -0.35551455140818
H          -1.43419918074581   -0.49155597201258    0.32712102653302
O          -2.07375300410929    0.91113155132775    0.53426157604581
H          -2.99427173178238    0.84882291658592    0.79616930404505
O           0.43410680748059   -3.02900844447662   -1.79257472018498
H           0.18423068197120   -2.19454173739807   -2.27342861199091
H          -0.37524411300352   -3.54273180113615   -1.73967358729834
O          -0.31465368040286   -0.89092707927645   -3.13982411543301
H           0.28443145496372   -0.69503328425669   -3.86222199167770
H          -0.34250497935609   -0.07442447914562   -2.58378528230976
O          -0.18975008493233    1.22863728131977   -1.54409247413524
H          -0.98902276444763    1.36279306189807   -1.02011519513555
H           0.43539675970476    0.77884390218109   -0.94571552121729
O          -0.66058809495143    1.48986292512408    2.57413764667608
H          -0.30335197073735    0.60172507996396    2.74515437479888
H           0.10434241850708    2.00148131494133    2.20941337099807
H          -1.56283023038509    1.23039356239176    1.35758477460354
N           1.49010466938945    2.46045091865870    1.27522738602926
H           1.66645671054180    1.52959019326000    0.90403478344915
H           2.32900190543494    2.77139456669882    1.74788489249922
H           1.33057509954239    3.07570153793651    0.48700703876027
