    26
        -50.45341043  Gyration_radius:  2.50234280484 Dipole_moment: 2.443
 S           1.16842619206597    1.02548955682401    0.44512895395407
O           0.67502512097697    2.25803455902427    0.97066858437633
O           0.63853834663959    0.66984651631324   -0.84840065021285
O           0.87477964310896   -0.13692628484902    1.43527844817798
O           2.68955042436746    1.02485384760461    0.42089859869759
H           2.96084968350633    0.05521412861237    0.25422983449258
H          -0.12082336398219   -0.27964224971837    1.51974804107472
O          -1.67305021239194   -0.36256626145075    1.57540319780987
H          -1.99191214039684   -0.49734163793266    2.46982805435680
O          -0.93405579533567   -1.49874732353674   -0.90093867740342
H          -1.43381426312717   -1.34568423069112   -0.08963614624397
H          -0.39733884488524   -0.69408950043090   -1.02591775139956
O           3.23812487229112   -1.43535420168790    0.17920145537231
H           2.46391706072990   -1.98358374408943   -0.12088336056070
H           3.40801679405056   -1.71041844858537    1.08324048412262
O           1.23469022397896   -2.98927954731974   -0.54123492411448
H           0.38176458743176   -2.49952868882273   -0.63771567102874
H           1.39315469918013   -3.40804332398772   -1.38899430093586
O          -2.03942494569266    2.07083994876743    0.91420605396428
H          -2.17198404547401    2.04419296956749   -0.06643357715734
H          -1.92091107034828    0.59470254015374    1.32438861112467
H          -1.12469780105269    2.37978570733492    1.03039455001937
N          -1.93671898738142    1.74944977275832   -1.75795809143503
H          -1.99994198158442    2.51960016960076   -2.41118817893544
H          -2.42572663965308    0.95913991864500   -2.15989609777797
H          -0.95643755702154    1.49005580796262   -1.67341743036075
