    26
        -50.44411081  Gyration_radius:  2.58686256992 Dipole_moment: 4.474
 S           1.01150715776242    1.52719032986389    1.31177178899993
O          -0.23356789459744    1.33381146791581    0.60859797217956
O           1.93589688490013    2.41693423918283    0.71307768651047
O           1.65661343341621    0.12507734596912    1.54770774031627
O           0.70841539177611    1.94809045620539    2.76117919221687
H           0.08740946065227    1.24619026297345    3.08380055007974
H           1.47250478122576   -0.53456214125663    0.81618507919853
O           0.95626179729160   -1.73260967220972   -0.09972379480916
H           1.21539781332825   -2.59516937588553    0.22944149718381
O           0.10057817490759   -0.83720617289971   -2.68840988760764
H           0.31688415365991    0.12239140639311   -2.63017354422996
H           0.60897518066591   -1.24237626515877   -1.97589747387198
O          -2.36897972296099   -1.27009332442040   -1.79155324032949
H          -2.75069152653823   -1.97598425439838   -2.31363200047633
H          -1.49712817283238   -1.05724163108005   -2.21038298312257
O          -0.70437177094537   -0.19901631475350    3.26785929959425
H          -0.01282449772904   -0.84024512661027    3.44890701588553
H          -1.17947257882127   -0.51705279711357    2.48222423245636
O          -1.41276136206950   -1.01365996355718    0.66788205559295
H          -1.13660349688569   -0.07667808824651    0.58013863178307
H          -1.96350353555352   -1.16839227685782   -0.13223922875910
H          -0.00474824957230   -1.58909988287337    0.15758166974566
N           0.76623116429621    1.73492180480923   -2.09753474248030
H           1.73456955583614    1.92817001271498   -1.86908048863677
H           0.26412433207762    1.75477265010153   -1.21424206759090
H           0.42928352672733    2.51183729120933   -2.65348494981102
