    26
        -50.45310033  Gyration_radius:  2.47136619783 Dipole_moment: 5.236
 S          -0.27966804017615    1.20529651359588   -0.67369793335836
O           0.86869775932083    1.08702809370573    0.18881436667911
O          -1.37005433393489    1.95229940756892   -0.12371390511716
O          -0.76740086946175   -0.20344412545596   -1.06711283537586
O           0.12334459259460    1.82090769006867   -2.01002637582610
H           0.83422629214880    1.21313087297574   -2.42466724649852
H          -0.41512565075286   -0.94136768839073   -0.44205639579235
O          -0.05843481470976   -2.03588070846938    0.51288653092207
H          -0.54948903773416   -2.82687108240855    0.27851269927272
O          -0.37089123209399    1.48380021180302    2.56131566661602
H           0.25447159540755    1.38655728365489    1.82500133355147
H          -1.05939193234078    2.06532028438065    2.22670758533623
O           1.94218559392282    0.29881462820933   -2.90822046407091
H           2.21283940243828   -0.27267433058450   -2.11976251922535
H           2.70394924172072    0.83937278488841   -3.12899284883755
O          -3.18377602721184    0.09260286037478    0.60034457278389
H          -2.64593683563428    0.87193874973849    0.37130132236900
H          -3.36469213882539   -0.35053213859646   -0.23026695683301
O          -1.43662698563203   -0.98613570730875    2.39123249278645
H          -1.00234995262591   -0.15351247759802    2.67233976291533
H          -2.21804687901874   -0.69327908092079    1.88354843594645
H          -0.52186203741500   -1.66539355248198    1.34048052900588
N           2.57545597600302   -0.98142284476464   -0.70194819754854
H           3.52351651715657   -1.13655678599925   -0.38263147484965
H           2.04260789960111   -1.82190680402863   -0.51242162642110
H           2.16245187726269   -0.24809204395381   -0.12696652838726
