    26
        -50.45310032  Gyration_radius:  2.4713649662 Dipole_moment: 5.233
 S           0.02335613478571    1.03502147474081   -0.95578327512329
O          -1.21606120019912    1.23320365111065   -1.64425599577806
O           0.66457423204192   -0.22903822581189   -1.21589483954866
O          -0.20054006134151    1.18878963560476    0.56190342080381
O           0.96818553040698    2.18582948303973   -1.28756932769151
H           1.80433475988361    2.07090355200705   -0.70946338042887
H          -0.14893138553859    0.29514296133157    1.06992207148413
O          -0.23277103412557   -0.98363931694484    1.84109760893381
H          -0.54669805449673   -0.79303324430822    2.72814974132920
O           3.03367528856753    1.76069803421510    0.12131595609489
H           3.79980230702093    1.77694021956952   -0.45664249275101
H           2.93506063611327    0.80760688962568    0.44284954978688
O          -1.51787469819877   -1.63430620566088   -1.98069280012880
H          -1.99688813452115   -0.89158258622577   -2.35896506692913
H          -0.62631463704741   -1.29314982852119   -1.80333188207867
O          -3.11536427969396    0.86336957652838    0.23409970850634
H          -2.55126987991780    1.04886647182794   -0.53821803566031
H          -2.89277335569082    1.53206686788949    0.88405271733211
O          -2.33296592017539   -1.72253474171537    0.58708847518022
H          -2.81005499826754   -0.87140707893117    0.54121479451410
H          -2.09165362934718   -1.91726144825742   -0.34280654683313
H          -1.02752327180816   -1.39597090752127    1.35596219056732
N           2.63934740789021   -0.76483891559350    0.73311034352749
H           2.09878579410113   -0.93496147857282    1.57282336345128
H           3.34622603778739   -1.48656977481750    0.66770979070886
H           1.99433642178856   -0.88014509459217   -0.04767607927929
