    26
        -50.45310036  Gyration_radius:  2.47134067304 Dipole_moment: 5.238
 S          -1.18047832332382    0.66798835772911   -0.38052756781620
O           0.00583375762812    0.73768427514073   -1.19554391442468
O          -1.46130803758624    1.85127815035437    0.37468179211758
O          -1.07173852857552   -0.53802737786754    0.57387779948794
O          -2.39344559232568    0.32475507738581   -1.23971348096819
H          -2.20397853880084   -0.57351689196892   -1.69099144715198
H          -0.10701651559256   -0.87933301312744    0.68440559429008
O           1.28473607979569   -1.32624769124123    1.00084955108831
H           1.25350544230203   -1.95315108072074    1.72731755556894
O           1.31520094141833    2.67266611193959    0.17036360872327
H           0.53112005913425    3.13677331184599    0.47695770382750
H           0.98746226417237    2.02891026626902   -0.47837141230845
O          -1.78933499863443   -1.85925077170739   -2.37884800321258
H          -1.92169913844403   -1.75187453404126   -3.32342378002149
H          -0.79357461632764   -1.95735051802876   -2.23642766160215
O          -0.73631000111350    1.24493647354419    2.90046573756626
H          -1.06206756139638    1.59841938410690    2.05307628569619
H          -1.29079327304894    0.48753015448508    3.09549642072511
O           1.85267216264887    0.89668412432757    2.12572788414248
H           1.88285854950956    1.59702716403232    1.44062296119169
H           1.01765541840014    1.06127624549738    2.60507622306952
H           1.62873515885529   -0.45827796546500    1.40748086198011
N           0.81216084838994   -1.84719608064212   -2.00421770315006
H           1.13474617654311   -2.27133736147211   -1.14264253700662
H           0.81042292945891   -0.84094766569371   -1.84162722207054
H           1.49463530692005   -2.04941815467664   -2.72406526975369
