    26
        -50.44411083  Gyration_radius:  2.58686906005 Dipole_moment: 4.475
 S          -0.02519520482264    1.15124959179076   -1.93678445507877
O          -0.87502274520546    0.89398455675347   -0.79932842259447
O          -0.34509988184884    0.45352220301796   -3.12649291240818
O           1.45149756116053    0.87961186303947   -1.50852569696589
O           0.02698056757747    2.66873221974906   -2.19037353439741
H           0.28786612212264    3.04400077373737   -1.31080569199564
H           1.55013598852068    0.14407301661699   -0.83521607237648
O           1.77438357886667   -0.75006855269783    0.46521536892106
H           2.66986874187883   -0.70063188214869    0.80462086400336
O          -0.32674591069523   -2.66680467960376    0.84772381731137
H           0.52605258866065   -2.26297254675304    0.64779931831779
H          -0.87065883147367   -2.50471157501520    0.04223102844756
O          -1.13298189055895   -1.07758094439689    2.82625593388959
H          -1.04051786849277   -1.56137054637453    3.64721055566726
H          -0.92910605725209   -1.72130187530919    2.10176485655513
O           0.93316568562612    3.20938735614168    0.20719374657334
H           1.86815663884866    3.01693760882144    0.10254357379483
H           0.59456932924785    2.58878248426852    0.87372475595886
O           0.14863556526893    0.90524982068267    1.62075810480566
H           1.20205962658698   -0.15637946338123    1.03995822404995
H          -0.39762358711474    0.90840921964880    0.80619989889316
H          -0.35747672718422    0.32848942045315    2.23617801780634
N          -1.57462193011751   -1.86152269112733   -1.43326405108043
H          -2.53765265772249   -2.10912797313105   -1.62687225843008
H          -1.06276501473028   -1.94687906764065   -2.30384101775117
H          -1.55790369711622   -0.87307829708145   -1.19787394198024
