    26
        -50.45341037  Gyration_radius:  2.50235796928 Dipole_moment: 2.442
 S           0.48029768674190    1.54270916933496    0.06608521942549
O          -0.61684248202793    0.90234883231962   -0.61706049231403
O           1.61133383008494    1.82303015929635   -0.75910571961748
O           0.90034309156052    0.65129427900826    1.26887024537375
O           0.00896849803072    2.80390218509889    0.77450659429621
H          -0.63673229034814    2.48663411232198    1.49827671531904
H           1.20441656146684   -0.25405573048520    0.94235224884169
O           1.67497077227225   -1.58756457074030    0.29449633214977
H           2.47011986144285   -1.92584386297655    0.71058112814630
O          -1.43445490153795    1.88331157507042    2.64048793969185
H          -0.83760270104566    1.87225407728293    3.39247664976942
H          -1.69923318118411    0.93428024629964    2.50180633746564
O          -2.13081780042227   -0.64804189926424    2.40659209647223
H          -1.74646656291621   -1.08161470391585    1.60599973787083
H          -3.08073633956091   -0.75254895901939    2.33006534339161
O          -1.14357981758949   -1.61393091481779    0.13792025115997
H          -0.23961736129155   -1.94148075219479    0.22144068426004
H          -1.05708616052612   -0.71933344508615   -0.24073490855748
O           2.28510193652881   -0.53281104065948   -1.94342302382864
H           1.95341780024344   -1.25863316465182   -0.63022956190886
H           1.47985220653721   -0.65899851842140   -2.50516671975700
H           2.24826638240636    0.39860091298455   -1.66635833901359
N          -0.15515603407116   -0.63035341442591   -3.07930715757176
H          -0.35425794038172   -0.25255655171609   -3.99664191562857
H          -0.48685992252253    0.03735390659397   -2.38681004144486
H          -0.69764513185748   -1.47795195723737   -2.96711962398776
