    26
        -50.45310040  Gyration_radius:  2.47132789292 Dipole_moment: 5.238
 S          -0.01596513194165    0.78919789244078   -1.16671977001023
O           0.98407302504575    0.99138100465631   -0.14905465006664
O          -1.05013482279413    1.77868020198220   -1.19814027752570
O          -0.64510778492540   -0.60745289388987   -0.99115857832321
O           0.63796863265999    0.70683667518885   -2.54247377199162
H           1.30169988109306   -0.07139599442968   -2.51937756391911
H          -0.48502446455753   -1.00732349916652   -0.05636484412719
O          -0.41372559450079   -1.57621900653940    1.32501285714292
H          -0.97878583074849   -2.35091346689211    1.37287985202067
O          -0.47942396231898    2.50098197680612    1.55462021295176
H           0.21464748081931    2.03848295960588    1.05761921802415
H          -1.02930773958518    2.91652837207452    0.88447199132457
O           2.31996134270734   -1.18173962208325   -2.35365964558084
H           2.40327659197509   -1.35435933802578   -1.36124481113510
H           3.17316121536400   -0.85457129446344   -2.64733601958672
O          -3.18816411975150    0.57694506414797   -0.07699783586359
H          -3.32188660770957   -0.17903842799830   -0.65118861692797
H          -2.51981145673757    1.12959702544449   -0.52083257041820
O          -1.85663508005948    0.30185408477575    2.28432352869104
H          -2.51691503333246    0.38859342853035    1.56977752355253
H          -0.92151235085381   -0.84079230288953    1.81319438077054
H          -1.34746667004215    1.13872131759028    2.24920780775395
N           2.47708856335775   -1.37214499807849    0.26293666664306
H           3.34477041983712   -1.43412697885657    0.78075199096923
H           1.80963682666609   -1.99669606889390    0.69962761567679
H           2.10358268006736   -0.43102612102394    0.38012530996698
