    26
        -50.45310037  Gyration_radius:  2.47127740911 Dipole_moment: 5.233
 S          -0.89244953061277   -0.62227248043703    0.89543806666808
O          -2.27290305393545   -0.32817879226538    0.65620280925022
O          -0.09593898699902    0.50603785415333    1.30665398123054
O          -0.27274080070227   -1.24813869264416   -0.36995837199776
O          -0.79205032700830   -1.74399603188104    1.92451954786972
H           0.19541740112294   -1.99958994041987    2.00237235649286
H           0.37538336491738   -0.61435868600478   -0.85761389271778
O           1.20914095154899    0.30716175497150   -1.68948901596336
H           1.39757149504121   -0.11635275135838   -2.53025405950995
O          -1.63589080044606    2.47919378389878    0.27822047112300
H          -0.99686887487460    1.93349003061074    0.76462097490179
H          -2.47572726061480    2.02105322379373    0.37254081299130
O          -2.51162360892471   -0.27832903008132   -2.02929526320561
H          -2.58763960734762   -0.28789675837494   -1.05809418779442
H          -2.22835206395693   -1.16045269322277   -2.27568678663751
O           1.68844283427393   -2.23915523973132    2.10963871556438
H           2.14200814279600   -1.45660257477698    1.65866294194377
H           1.93404376740342   -2.20101306712211    3.03669865697192
O          -0.78503966200487    1.82304391936253   -2.19388658094954
H          -1.05024905991730    2.27909633671243   -1.36774948046437
H           0.49715527605131    1.00635339452240   -1.89271514114550
H          -1.47816970406477    1.14897036397061   -2.33282178631572
N           2.65732002918777   -0.05669594879082    1.01136253097248
H           1.78382901989306    0.44330104431755    1.17253830636242
H           2.78296810356989   -0.08804495623047    0.00663398939394
H           3.41236297563648    0.49337594701368    1.40146041496662
