    26
        -50.45310049  Gyration_radius:  2.47108947325 Dipole_moment: 5.231
 S          -0.91739665396447    0.73946945434805   -0.77259965670264
O          -0.51802789224983    1.19693625626382    0.53420339166416
O          -2.22965135212569    0.17074945244696   -0.83499119382830
O           0.11280345672738   -0.28401944966397   -1.29019880554478
O          -0.81752602322493    1.87648560827435   -1.78476182160134
H           0.15474538523049    2.19460765639742   -1.79123478318329
H           0.69743198243674   -0.68339666771143   -0.54293829714925
O           1.47592237800164   -1.40509977180893    0.51015468386275
H           1.94987571051910   -2.13394399589094    0.10284556896553
O          -2.16799572080858   -0.35121550724222    2.01866020156603
H          -1.55824163671267    0.31979938929036    1.67129396165808
H          -2.88012835876396   -0.39595190622050    1.37441647133410
O          -1.82274713707000   -2.49082255275900   -0.98175125195710
H          -2.12470578751245   -1.56485189566434   -0.96027505538137
H          -1.30169097024896   -2.57487822502432   -1.78215321527079
O           1.59434138960882    2.65019923653170   -1.65775939763925
H           1.95457525869090    2.23061565000595   -0.81174612609879
H           1.59801356637678    3.59942543237060   -1.51567090553415
O          -0.62810338060530   -2.49346299805492    1.46726735224619
H          -1.09714326503101   -2.70951071864620    0.63823381580382
H           0.69455763867033   -1.83304557097921    1.00374823321752
H          -1.17847336598207   -1.79814008107309    1.88506355343741
N           2.28085114044713    1.57084175799661    0.63821616433817
H           2.64345456227951    0.62614964784941    0.58951739763343
H           1.30502748369661    1.48579799289232    0.92016693239405
H           2.78023159169137    2.05726181612502    1.37229278187694
