    26
        -50.47192565  Gyration_radius:  2.43586433669 Dipole_moment: 1.708
 S           0.90128668155129    1.83203117303915    0.02617162212112
O           1.14666917843633    1.11332471654461   -1.20039954496609
O           1.34086997781176    1.07677511448507    1.20407780566725
O          -0.46309479706314    2.30361058942394    0.17617637488416
O           1.80925450836853    3.12829675324883   -0.02280888144005
H           1.44261463735265    3.66003543688208    0.67599443556863
H          -1.28090921995541    1.62894968155178   -1.12152779801729
O          -1.49774143240709    1.11810160514080   -1.92944378578970
H          -0.67770347987377    1.14773789700768   -2.43343045334515
O          -1.12549614480996   -1.88569937085195    1.40843767914604
H           0.42187071023877   -1.81956199300598    1.21877380440452
H          -1.43824182107044   -1.78591674040694    0.49150207896436
O           1.12716971111137   -1.51900206155393   -1.69830277359264
H           0.16152883914033   -1.64574979068471   -1.70242005365247
H           1.25237900459444   -0.54988527227312   -1.70415453474845
O          -1.60404676580038   -1.41914391859461   -1.26895789517186
H          -1.63243106847166   -0.44706802357989   -1.48417587991447
H          -2.32739847221554   -1.82005593940682   -1.75271925178333
O          -1.09106998669897    0.64883972383473    2.26635346268137
H          -0.15105256217343    0.82067511250826    2.07724870869495
H          -1.54971366253904    1.28325621166109    1.70553570503763
H          -1.27789211671599   -1.01496366168763    1.83930696216270
N           1.41541287127276   -1.55505729296462    0.90673533454005
H           2.12842826305708   -2.08238008141045    1.39649365700118
H           1.51814078635557   -0.52236929897689    1.07359632271254
H           1.45116637050044   -1.69478056992851   -0.14806311117075
