    26
        -50.46147711  Gyration_radius:  2.46568214542 Dipole_moment: 7.092
 S          -1.97670787259650   -0.24363689261684   -0.43700740606226
O          -2.03797534148286    1.19225207195383   -0.15404126543525
O          -1.78368332672457   -1.01347713537192    0.76868480243649
O          -1.02030684238325   -0.52635993610054   -1.49478459598594
O          -3.39248481048960   -0.65399186847282   -1.01240060693890
H          -3.36095721602110   -0.40086357298268   -1.93022107861172
H           0.04087942534738    0.70563777734136   -1.29910141466833
O           0.62212370969555    1.47081057417152   -1.07943486589550
H           0.04045905121338    2.23362066829285   -1.10208691164619
O           0.83489457332844   -1.70098097002357    1.12561093173335
H           1.12621634970623   -2.00502649274292    0.23390345271443
H          -0.13232478814459   -1.64750021216699    1.05416807366726
O           2.96964264011871    0.07513991961967   -1.65836475546084
H           3.41646811884313    0.12197575063831   -0.81041478755311
H           2.24480949920099    0.71551847176092   -1.62499168832496
O           1.27944625141818   -2.11164058408077   -1.46636920697682
H           1.96925150411241   -1.46656213954154   -1.70405389494500
H           0.43514945257754   -1.68469331052050   -1.67189565151201
O           1.36834452870114    0.81330785170322    1.44013387485727
H           0.03181377418098    1.03790412978988    2.01768906650763
H           1.32490896249552   -0.18736163552157    1.37457596739167
H           1.24773124082853    1.12909569534505    0.52164235157284
N          -1.05470150232770    1.06250855541242    2.22954769797613
H          -1.36082658144559    0.09161353980556    2.35573475246681
H          -1.52343113193105    1.33393235446662    1.31393323843348
H          -1.30873967822875    1.65877740989815    3.00954394024652
