    26
        -50.45626270  Gyration_radius:  2.48776840037 Dipole_moment: 5.412
 S           0.48779435388719   -1.51220016276305   -0.48949589962200
O           0.65353389417326   -0.12493252789441   -1.20709175185463
O          -0.42921231618645   -2.31925696849822   -1.24327819888624
O           1.85862223097437   -2.04168584148049   -0.43710837819346
O           0.01818670208535   -1.19461754309938    0.86371886403636
O          -2.90100609207142   -1.45407844589574   -1.40828976613610
H          -3.29268498789369   -1.93852870141989   -2.13726517375148
H          -2.02491024561587   -1.87496024882086   -1.25081884401565
O           2.17443275787110    1.53332886616585    0.20105222290888
H           2.55030366190223    2.22814549159015   -0.34127836505954
H           1.65473443348902    0.95758839632160   -0.40617015419206
O          -0.22504498833278    1.31133427635225    1.72463092478555
H          -0.27768359365721    0.37620880093913    1.43778911644812
H           0.56785351381175    1.67010965254261    1.30588082649006
O          -2.31890081563062    2.16208676209940    0.30032597236594
H          -1.57540633919442    1.95333960506394    0.91100623670764
H          -3.08717346948138    1.71001411072556    0.65377703795841
O          -1.56314661993980    0.80194478008905   -1.85836195445519
H          -2.16780221983900    0.02789463484652   -1.77998193907022
H          -1.83768080222056    1.41735487105673   -1.13498957194271
H          -0.28209826065390    0.26254522006957   -1.51810243692522
N           2.45072191015239   -0.77531176661164    1.61367855364127
H           2.65212487764525    0.19484802937290    1.33135457394673
H           3.06765139887501   -1.11352167130091    2.34319217478062
H           1.43924012690511   -0.85344486353781    1.84525566134160
H           2.40755088887922   -1.40420475599776    0.68057026868225
