    26
        -50.45626279  Gyration_radius:  2.48778401198 Dipole_moment: 5.412
 S           0.85778261108398   -0.85893449147732   -1.13642834015467
O           0.22129919191222   -1.97394413230838   -1.77831735421554
O          -0.04521873424354    0.41400060842271   -1.31349299135541
O           1.01390655450829   -1.02408638689196    0.31311291708751
O           2.13841593960369   -0.46265829756117   -1.74051730161426
O          -2.07799778482252   -2.75299318011576   -0.78242978673601
H          -2.47790943703343   -3.29928434774969   -1.46152286354555
H          -1.15939997901960   -2.57763314465291   -1.09045344632344
O           0.02620051398155    0.73258778005180    2.05077428455064
H           0.30693863346090   -0.01252702050124    1.48023765958373
H           0.22651969485630    1.53495332962809    1.55190147775430
O          -2.59898059451857    0.29691348734635    1.81695198760113
H          -2.76756579738819   -0.55788370253170    2.21754180083584
H          -1.66169253560813    0.51500088909806    2.02501857040435
O           0.92982135036270    2.50112419908302    0.00531655698942
H           0.54019801748833    1.79343279684133   -0.55828538750429
H           0.60209884661826    3.33269678678207   -0.34018758838565
O          -2.42436177016347   -0.11454540031863   -0.80618399254310
H          -2.57642936007196    0.13758003605980    0.13757474588284
H          -1.06501261357819    0.19153632550322   -1.13224289486107
H          -2.44784762199322   -1.09959000373370   -0.81558427901780
N           2.93942110888198    0.69205512313764    0.30533166455775
H           2.76581946586622    0.26116796476010   -0.72010845675304
H           2.35283041923963   -0.00011901059016    0.81521826490470
H           3.90483020186733    0.71957374616189    0.61264364683656
H           2.47633366882280    1.61157604557853    0.34413109602399
