    26
        -50.46274733  Gyration_radius:  2.39313128332 Dipole_moment: 4.907
 S           1.18804093613487   -0.83158878113244    0.69240758263335
O           0.83497509513601   -1.24511452275174    2.02588277862470
O           1.35195530193376    0.62879122751012    0.58535482566675
O           0.17399203184528   -1.27032929768061   -0.28425945410000
O           2.52483866002855   -1.47838695955780    0.28345221618042
H           2.74575658471233   -0.99197733668611   -0.57272225317996
H          -1.34946530371773   -1.25964548494565    0.23577646546393
O          -2.29228161969403   -1.13423302612944    0.52159660732656
H          -2.70278333879147   -1.99846361663742    0.47396474284813
O          -0.61903903123735    1.93490943166777    1.35333641745680
H           0.27354848406225    1.48543987435121    1.04581592381201
H          -1.25566560153182    1.83481334827896    0.53322629859922
O          -0.30289361447952    0.26081097061372   -2.32933695453910
H          -0.04276898575705   -0.32376598509144   -1.57411194155459
H          -0.75287416077929   -0.30507302434007   -2.95952152753669
O          -2.08362634985203    1.36536727837642   -0.62757105256246
H          -2.42978783260120    0.51798925992433   -0.30047445450704
H          -1.44685269378275    1.13329781971080   -1.33963128303945
O          -1.33432332706756    0.01861370261411    2.80118186528834
H          -1.93663466243815   -0.43316518491271    2.18246279924735
H          -0.49251169379833   -0.49086311577503    2.73445943631011
H          -0.97471360462688    1.25167470534545    2.07283839949256
N           2.77301907511151    0.10180562596988   -1.75880292960926
H           2.09653748562917   -0.01183196092532   -2.50397768569709
H           3.64328068684803    0.42642793770363   -2.15995721620189
H           2.41027747871327    0.81449709450425   -1.13138961642581
