    26
        -50.46147404  Gyration_radius:  2.46572137929 Dipole_moment: 7.000
 S          -0.08316884790354   -1.77808778822772   -0.99568460127165
O           1.33736819681612   -1.84154987801117   -0.64517536918441
O          -0.33141915591987   -0.78720402526666   -2.01574720790516
O          -0.90964027254861   -1.64277179715553    0.19289418837343
O          -0.46102392082034   -3.18074145404487   -1.62383601688579
H          -0.66242179173178   -3.73202572115746   -0.87352081215162
H           0.11722782447157   -0.85801214696200    1.20036347099722
O           0.80551006341861   -0.37173949743937    1.71135942226176
H           1.57790975867684   -0.94038082697305    1.68248849126356
O          -1.05274573609141    1.29107302738899    2.96651737653959
H          -0.74350561076659    2.15180166737396    2.67605847872128
H          -0.34704005098236    0.66059413063432    2.76391027904997
O          -1.21937212587164    1.56650265693795   -0.95619541890353
H          -1.89370950839943    1.28986543885790   -0.29217685412067
H          -1.04733695605184    0.76037040703329   -1.47021760075115
O          -2.68834046981357    0.38355745776973    0.92279239332299
H          -2.25135407866647   -0.45748873741199    0.72527338474544
H          -2.30811797515261    0.69024957064442    1.76527321620122
O           1.09569873162658    1.83821806748461    0.17181220390306
H           1.03463943578113    1.14024606250175    0.85523755725659
H           1.73725066114504    1.11909057756001   -0.94242390538177
H           0.17187724300694    1.89867140511977   -0.21576388378084
N           2.01410227783282    0.39829901716647   -1.73607682485041
H           2.90514062656341    0.59531501125080   -2.17848811266849
H           1.23710031542612    0.36989664522296   -2.40478695497973
H           1.96537136584072   -0.56374927037228   -1.28388690983297
