    26
        -50.46802644  Gyration_radius:  2.46789470374 Dipole_moment: 5.460
 S          -0.18177607794488    1.22717435962469   -0.10956138995067
O           1.10176056756149    1.20380066949228   -0.81419431584336
O          -1.25454968512688    1.81504758522222   -1.02845557105873
O          -0.56469939473762   -0.14829895780176    0.24509325977673
O          -0.13167139178741    2.06654360432052    1.07887887094395
O          -2.02979613042170   -1.80655934294128   -1.23844532766178
H          -1.43876868820333   -2.53289386287339   -1.44596477413158
H          -1.53615498623484   -1.22234280982114   -0.62638661460220
O           2.35505077490807   -0.43715282719241    0.78958962159719
H           1.93049177369693   -1.26293065062955    0.54400190361780
H           2.00961578946888    0.22672199388644    0.14530134620356
O          -1.02182522740396   -1.00303302000589    2.69107067377408
H          -1.93436564219868   -0.80551376481978    2.90720582455943
H          -0.91524664362609   -0.76847437056387    1.73872640283857
O           1.06895082314459   -0.46528486488441   -2.83391577228543
H           1.68200515214134   -0.13267834726885   -3.49156918208365
H           1.13817138889011    0.14900005449543   -2.06610811496600
O          -1.53131495344581    0.19548604838307   -2.95923237895387
H          -1.95617821349138   -0.55391313004880   -2.49207793064746
H          -1.39400800542119    1.20669540861294   -1.84231197181389
H          -0.60522230728984   -0.09322604694001   -3.10545057467216
N           1.06244118909914    0.63264149517336    2.82813867315967
H           1.73585220125063    0.14693910997354    2.17366952822904
H           0.31017007919565   -0.04607012910887    3.08524685696918
H           1.52128069439624    1.04692593970622    3.63130407068460
H           0.57978691357994    1.36139586600258    2.19544688631328
