    26
        -50.46147694  Gyration_radius:  2.46649956969 Dipole_moment: 7.076
 S           1.57145597128769   -0.00873017355635    1.29902322663888
O           1.15006537974531    1.37131984108967    1.26242570076993
O           2.33485917814990   -0.36964951158383    0.10208007348717
O           0.50121950794835   -0.96210733817086    1.54216238556248
O           2.56030738820985   -0.14609566361110    2.52692682006309
H           2.56117027495735   -1.07670347350355    2.73093945368788
H           0.17593424155984   -1.46510720766641    0.01783130850799
O           0.05059114103427   -1.68094135424532   -0.93573491734899
H           0.91824018934828   -1.95479512626982   -1.24047565377781
O          -1.43280456956537    1.62446977193076    0.41270535901174
H          -1.91628458707502    0.92057519727196    0.90578043614407
H          -0.56824382105484    1.67182829228370    0.85294646064639
O          -2.71862918555673   -1.93411101580761   -0.69418196665974
H          -1.77604361268049   -2.07274835964496   -0.86466636814028
H          -3.01487417856181   -1.26666623561397   -1.31671186481624
O          -2.26096382035613   -0.56927810265633    1.67297591021914
H          -1.33896586260303   -0.81909758314415    1.83061920054131
H          -2.58005139251495   -1.15928715667207    0.96692579447960
O          -0.67153889735949    0.74516446156693   -1.90085558959156
H           0.65937453334149    1.34593410755672   -1.70720585092458
H          -0.50480198657352   -0.19323380941505   -1.67870059842096
H          -1.11652776212353    1.12563431292652   -1.08555659140980
N           1.64166314298861    1.67382853747613   -1.31509376261192
H           2.09235582230270    0.80548317472892   -0.89693811272017
H           1.45997638878211    2.25042156960700   -0.48647469003253
H           2.22251653639604    2.14389283508791   -2.00074615330905
