    26
        -50.46454031  Gyration_radius:  2.37452974404 Dipole_moment: 7.993
 S           1.13768106900376   -0.55676438844151   -0.84121523592424
O           1.01927788872062   -0.22506105675815   -2.23016827487842
O           2.10544170424675   -1.60660050317304   -0.52274427180100
O           1.63685169033135    0.68524008176103   -0.03412446377055
O          -0.16356003850348   -0.91856475210978   -0.23925639427610
O          -1.48871723955532    0.76600522239511    1.25626983952093
H          -2.42032962139079    0.67970486761756    1.04550016657799
H          -1.02589743980137    0.10480653144553    0.68669993121950
O           0.91736448142943    0.38539465928137    2.59138821859318
H          -0.00503901259643    0.64707264994844    2.44265700058499
H           1.40352859256042    0.74461049593912    1.82980227510564
O          -2.33722305948715   -0.56064771326499   -1.74562494701790
H          -2.33225385241426   -1.16044418552081   -2.49308484153512
H          -1.53214724153401   -0.76892785426327   -1.22805074662975
O          -0.90292789402438    1.61334532553985   -2.62242013271922
H          -0.13325020093871    1.02089863698842   -2.71537799478571
H          -1.64058893482333    1.01752146465681   -2.40123272101100
O          -0.05787366123437    2.51553454392326   -0.32201734288196
H          -0.41735728500589    2.35441425568457   -1.23690182452698
H          -0.72305751419692    2.17072503544745    0.29841155184262
H           1.00899689076459    1.48924214255395   -0.21377805420437
N           1.19206078415890   -2.10554092779042    1.77231407499010
H           1.67751591535143   -1.93516755158814    0.77904510745404
H           1.08702591857194   -1.14129685265549    2.22220523564174
H           0.26643988539376   -2.47411201389606    1.56698787396028
H           1.72803818496332   -2.74138810359752    2.35471597050503
