    26
        -50.45875076  Gyration_radius:  2.52028694976 Dipole_moment: 10.931
 S          -0.26223775371206    0.38815151294532   -1.00681353335983
O           0.40832889467077    1.63310902013171   -0.76264929135069
O          -1.39656804894890    0.16301550866709   -0.11199379578943
O           0.74084364207929   -0.79979965300155   -0.73132761263900
O          -0.64098623827646    0.17270238041767   -2.40667377057957
H          -0.75387860994543   -1.20429793861571   -2.51058760483904
H           1.10310278618300   -0.67391726953565    0.19293996488555
O           1.53773539840128   -0.46999500210207    1.70195816969557
H           1.52628833953995   -1.27035779884033    2.22922233178120
O           2.76717865933137    1.90583045261660    0.68714610442315
H           2.10415435161876    1.85576415538871   -0.01785921516624
H           2.68458618541758    1.07558690722338    1.16912980638345
O          -2.35695996410977   -2.22582786035936   -0.27665888778402
H          -3.31196663356160   -2.14059789654898   -0.26089025271583
H          -2.00467415232549   -1.30944312084654   -0.10757441533182
O           0.47694463548519    3.28983548386049    1.48237451322655
H           1.43207667058102    3.11495384958376    1.50558076785198
H           0.22478299544907    3.05152616607611    0.57937218616851
O          -0.50375318632528    0.94506480692894    2.30664018122150
H          -0.21636941066866    1.88090637681888    2.18394082067694
H          -1.00559085243467    0.72650749397827    1.50078022925745
H           0.76764892211033    0.10139054574432    2.04035716178245
N          -0.81758240218998   -2.32602951426524   -2.40550343554821
H          -1.50554299858214   -2.46859778444260   -1.61218253318708
H           0.10597661266566   -2.62878397805565   -2.10565272790298
H          -1.10353784245239   -2.78669686376831   -3.26307516116092
