    26
        -50.45626278  Gyration_radius:  2.48782893176 Dipole_moment: 5.411
 S          -0.64354930742160   -1.50109620856794   -0.31345805887926
O          -1.63428570416355   -1.62111264926435   -1.34515277315569
O          -0.14058693380314   -2.78556983979978    0.19555774941146
O           0.63523593293056   -0.81362506571644   -0.91286106823262
O          -1.05662369879355   -0.64337711180616    0.80303369565659
O          -2.58833646321131    0.61616442110196   -2.33011058448474
H          -3.01114401959634    0.37152149820039   -3.15528499865441
H          -2.35657815973497   -0.23319407134615   -1.88930998649040
O           2.46759123530171   -0.35248829493020    0.95160433778765
H           3.34440629173765   -0.24863613320983    0.57924928289965
H           1.86614357992036   -0.54596450642608    0.19590483534598
O           0.36543834475968    1.47440049131501    1.56072243221925
H          -0.26765096963775    0.78949051546744    1.26138217017798
H           1.24336661189458    1.08938442331597    1.44321527263498
O          -0.03742804817028    3.14818392167128   -0.48182152630965
H           0.14636541532793    2.64338580904577    0.34324792322335
H          -0.94943577368084    3.43751269805732   -0.41807509029087
O           0.01218711264174    1.17818500893711   -2.27000226033867
H           0.37850312778438    0.01581650401589   -1.51972738045299
H          -0.95645417899041    1.06580547448089   -2.41152704740114
H           0.09615596542681    1.96410788222002   -1.67618243650077
N           0.64645936569839   -1.81933127843890    2.34203774000636
H           1.54248357217922   -1.34489766181655    2.15901764248916
H           0.39922109878108   -2.44923524788978    1.44242736549296
H           0.62579074209448   -2.30000027295975    3.23407802015126
H          -0.12727514927570   -1.13543032588060    2.21203477385690
