    26
        -50.45875083  Gyration_radius:  2.52029875017 Dipole_moment: 10.930
 S           0.58630230182829   -0.09325899573031   -0.93873290023058
O           0.28863611440922    1.25622236197596   -1.32535512630902
O          -0.60165541949432   -0.94226137070168   -0.85953081814895
O           1.20517301986349   -0.08868774250246    0.51379241357000
O           1.63944065268841   -0.72951883285943   -1.73599892298907
H           2.11912264188038   -1.73255393020454   -0.90985336167930
H           0.56726095498810    0.40388892189817    1.10689698110939
O          -0.54623044257285    1.09107548584751    1.99939276379254
H          -0.72734379621596    0.63904744009978    2.82506188935350
O           0.08414911060044    3.40156694619134    0.43444557582609
H          -0.08203898892952    2.87025920626670    1.22089938019095
H           0.37891911525371    2.77058864550115   -0.23943242572482
O          -0.13329660912740   -3.24342434103225    0.20882594849100
H          -0.40819998902501   -2.35608601849727   -0.15129829787586
H          -0.61330632710971   -3.89101150508642   -0.31066978457033
O          -2.07466298443055    2.73584974974728   -1.20570955992110
H          -1.59884996704942    3.33184033095947   -0.60426671493786
H          -1.36629400712382    2.25470805517601   -1.65570241730051
O          -2.44383956854798    0.60087749772677    0.35783695163172
H          -1.36546094510751    0.94778203508841    1.41434404949364
H          -2.51503066838584    1.40787112018151   -0.20526924124625
H          -1.93735858800256   -0.03699191563347   -0.17660855052210
N           2.36699622306000   -2.50033724076437   -0.12060677977302
H           3.09221197869511   -3.14655736576622   -0.41378499247972
H           1.44079081900598   -2.97918459713120    0.06852591090029
H           2.64456536884922   -1.97170396075030    0.70279800934934
