    26
        -50.46044987  Gyration_radius:  2.45557681419 Dipole_moment: 6.755
 S          -0.11208202478089   -0.82036606869180   -1.32443725548828
O          -1.13887181233175    0.03499573690212   -0.72882321104286
O          -0.25135598262061   -2.20239194549383   -0.96652565090408
O           1.26834397232248   -0.28180590953113   -0.77032067140203
O           0.00910739815635   -0.57516469527037   -2.76357999457800
H           0.57280245132010    0.71287388741978   -2.78898552640095
H           1.17362180798022    0.07750825712240    0.15359670423381
O           1.11789300622349    0.89312110547212    1.54354484390282
H           1.95359118499670    0.78305761038037    2.00015127357778
O           0.52826400963292   -2.80250701036833    1.48409362097316
H           0.11252132789060   -3.64554184008027    1.67271694670809
H           0.28077757822083   -2.59308646343669    0.55610129208532
O          -2.69434983825026   -0.63359517962108    1.32016206461780
H          -2.16736303149490   -0.49283703921394    0.50657200815840
H          -3.35086996677386    0.06430848456937    1.33443719076945
O          -0.13321814087791    2.40181823323941   -0.43083819401442
H          -0.70076658093297    1.59574549645306   -0.51063038470955
H           0.38978177341750    2.22498522384619    0.36535758139377
O          -0.44678828845955   -0.67701823333331    2.81253173549341
H           0.45052213143169    0.34195263437548    2.07997829280261
H          -1.34122720736125   -0.64429941055786    2.41707641835483
H          -0.06096501018096   -1.51217259067252    2.47163862702193
N           1.04040346039284    1.72331561215577   -2.66468815218045
H           0.62009949796763    2.12019878363791   -1.75497619472434
H           0.83955035330658    2.32035206563807   -3.46072389951076
H           2.04057794079185    1.58655323509573   -2.55342946511532
