    26
        -50.45875089  Gyration_radius:  2.5204217758 Dipole_moment: 10.930
 S           0.26083397333227    0.89823515672890   -0.59882147464127
O           0.72112734428369    0.91957633965225    0.78897971612537
O          -1.11710274753033    1.27302019338014   -0.74034172831649
O           0.44197950384328   -0.59270470471952   -1.08565236876186
O           1.17824759690111    1.63643450725427   -1.47226479769252
H           2.27998855320545    0.80310517509750   -1.57386801673901
H          -0.21653191298162   -1.15209057787015   -0.58089089526131
O          -1.20110660524509   -1.98201510271981    0.34120694048188
H          -0.82183325451042   -2.78339915230638    0.70559388898993
O           3.05972377304712   -0.12516657365433    1.09817735811229
H           3.53525424941368    0.44040285146075    1.70946230319546
H           2.13011479478212    0.23224214608357    1.07258316928848
O          -3.22795473673016    1.28155723697445    1.08524798590703
H          -3.65646221906380    0.63598213246175    0.49963593370042
H          -2.55967770233907    1.69258770601072    0.51932077668964
O          -3.22564769961102   -0.51610995013523   -1.05062407943642
H          -2.76579749201278   -1.27728495329957   -0.67976096100640
H          -2.53683869182722    0.15015105136881   -1.19456767922926
O          -1.29496665812894   -0.20516973197978    2.17695665655125
H          -2.08788462690822    0.34317888783585    1.96710991188078
H          -1.30659094398301   -1.33984064589914    1.12252265071048
H          -0.53685888251709    0.30798881063300    1.84380646837176
N           3.08849093860862    0.01693543731949   -1.52702791686768
H           2.66756770988825   -0.83537049494386   -1.88878127068132
H           3.27223054454075   -0.09797130751529   -0.48979577297957
H           3.91969520154216    0.27572554278165   -2.04820680839112
