    26
        -50.45075502  Gyration_radius:  2.55254024554 Dipole_moment: 7.331
 S           0.99522030215425    0.54054468557444   -0.45165530042405
O           2.00861418254722    0.82132577889255    0.52998169900254
O          -0.27139090383900    1.17445275560568   -0.24969206914823
O           0.82615556607460   -0.98714904657867   -0.51533209637439
O           1.51967685883735    0.91228074629831   -1.84734223855294
H           2.48670590136649    0.56264424226787   -1.86124256113403
H          -0.15678365206520   -1.30736493189413   -0.56561019247583
O          -1.54275606370714   -1.82981349456301   -0.51444047071900
H          -1.51486880403401   -2.78801745041373   -0.47630900747993
O           0.38954420196208    0.06439996741067    2.56409700251440
H           0.16363499464178    0.88457909349878    3.00905056294049
H           1.05955440754098    0.29243789773367    1.89990146380595
O          -2.65302634645991    0.57577557502095   -1.61188491265058
H          -2.54948866860914   -0.37291634209465   -1.47888855265962
H          -1.78897805844969    0.95208982783481   -1.39721105637155
O          -2.74569061398556    1.45644892660962    1.02868835818965
H          -3.16297661355621    1.27371244148880    0.17119926732582
H          -1.82848974873219    1.65325454477891    0.79631041812711
O          -2.03397808526859   -0.98411952952571    1.82636866323385
H          -1.15352953589514   -0.76707634012503    2.18416944499064
H          -2.45590163743602   -0.10758993826728    1.65927303668822
H          -1.80125059719194   -1.51591204754150    0.43132271644309
N           3.85711154297332   -0.03618618623680   -1.42430616755338
H           3.95274262626694   -1.03344325946663   -1.56141885478410
H           3.68498701801863    0.14637889093303   -0.43927122902144
H           4.71516172679905    0.41926320275723   -1.70575790394829
