    26
        -50.47000631  Gyration_radius:  2.45521278178 Dipole_moment: 3.895
 S           0.59280124249293   -1.71107206096596    0.97300116212010
O           0.98685977718888   -1.14279630711923    2.23721160013623
O           1.60165260129567   -1.58473546772317   -0.06613235866974
O          -0.71715924094211   -1.24719059805457    0.52058676528402
O           0.39875250191224   -3.26928627579930    1.21691144925230
H           1.17534910145216   -3.48868904929751    1.72068862955685
H          -1.24885323724608    0.09785553521726    1.23453497809649
O          -1.58059933905766    0.96157666388655    1.58753690367955
H          -2.04385370278014    0.75718150976490    2.40115041389752
O           2.00947570580841    1.01243104996714   -0.50358203078695
H           0.83950894895942    1.13542613861220   -1.46169183778502
H           2.04831987570884    0.04450410495330   -0.36195806576713
O          -2.29460321965750    1.74892225516229   -0.88691084911764
H          -2.06992690486168    1.62285326072061    0.05737190805633
H          -2.98447029836340    1.11037513945444   -1.07863667213953
O          -0.20850897198987   -1.62219275149387   -2.01800949732633
H          -0.68300965982364   -1.60533174802451   -1.16280805434619
H           0.69282114877830   -1.83306069584986   -1.72601335967723
O           1.13126723035213    1.51895116575576    1.93428500284057
H           1.22065936938311    0.58577893690878    2.20721345194564
H           1.78740715148321    1.37803337529862    0.38718475482604
H           0.17565157174997    1.66136467180517    1.87368345683124
N          -0.00626366089950    1.01999169572390   -2.13156257066125
H          -0.87167195054368    1.40258942901373   -1.68554924274355
H          -0.12596694923337   -0.02771903825153   -2.24890220063493
H           0.17436089880352    1.47423904037637   -3.01960372685910
