    26
        -50.45341040  Gyration_radius:  2.50227353463 Dipole_moment: 2.443
 S           0.97271896960330    1.19287705256032   -0.49657654277360
O           0.42652330271523    2.49606856753711   -0.29129087990670
O           0.11086909271949    0.28769306354503   -1.21654926204499
O           1.34090359148026    0.54348957381838    0.86743360137120
O           2.33577654605111    1.28325040131728   -1.16617095933424
H           2.74892351416370    0.35467790322116   -1.07327916502725
H           0.50738287393029    0.38400540555352    1.41388447811576
O          -0.85256946680571    0.22936118424371    2.15261403585307
H          -0.78449085871223    0.46580801787929    3.07958546754883
O          -0.81468025119906   -1.79770369564598    0.18809116330559
H          -0.56598747679457   -1.08810840367497   -0.43302611799767
H          -1.00768996531130   -1.34884936112579    1.02037284753724
O           1.62342956087928   -2.84703585580416    0.09428516216602
H           1.55840896190780   -3.57435302676380   -0.52697801242814
H           0.70362046006762   -2.50233590978630    0.20298212651818
O           3.32367254805984   -1.00512482473092   -0.72026801746956
H           3.86909392901672   -0.85914567977990    0.05622139013904
H           2.64639404435555   -1.67893156732200   -0.44227723977941
O          -1.99755823533962    2.12198980725469    0.88783559548970
H          -1.39319865735409    0.97090275000251    1.70687291513572
H          -1.20371028251167    2.51135566239362    0.48303313593923
H          -2.46560923787447    1.67319474591655    0.13989322579982
N          -2.79581142841083    0.70560129431271   -1.25952325855184
H          -3.19542198328558   -0.21125708301386   -1.10144455391257
H          -1.81987474525994    0.57249840301155   -1.51487620587964
H          -3.27111480612125    1.12007158510965   -2.05084492986465
