    26
        -50.47006515  Gyration_radius:  2.4354625207 Dipole_moment: 3.762
 S          -0.22102268252034   -0.92362341191635    1.97853136198378
O          -0.59682968475912   -2.30035049437975    1.77487715359025
O          -1.03569599148240    0.02265328558446    1.21967218009244
O           1.19496052353056   -0.66722287781612    1.81184072203731
O          -0.56309625056523   -0.60520167181282    3.50203692087651
H          -0.35738901875242   -1.43821213869337    3.91263468284016
H           1.89893400450167    0.43630158213118    0.94225558003719
O           2.33366051650373    1.13513176147017    0.38009329141135
H           3.21931426077886    1.23521918687489    0.73131886136117
O          -0.12215973903405    2.34223935186441    0.33147501013136
H          -0.52166256905797    1.58911054497869    0.81898365235382
H           0.83561006416883    2.18746575260564    0.39907137139818
O          -2.31173272164608   -0.62592664834171   -0.94821030235402
H          -3.24485219258769   -0.72094256643585   -0.75395644456172
H          -1.86920583942353   -0.43911183173801   -0.07991525796864
O           0.12807339057561   -2.10853646266741   -0.77341989857270
H           0.00870283959168   -2.28440735463530    0.17725992795979
H          -0.75960733568933   -1.93675027119454   -1.10907532817767
O           1.59693636291039   -0.17668096143580   -1.89324708905891
H           2.02966260392661    0.27501597796556   -1.14365478005609
H           1.21913005223743   -1.00015176273303   -1.51286460193163
H           0.32568081487111    0.64514488145153   -2.07963969644199
N          -0.59053853069595    1.21632080113363   -1.98485704263875
H          -1.36044844203275    0.55134277976836   -1.78657705952283
H          -0.77967631316187    1.77507011083200   -2.80829104593381
H          -0.45674812219777    1.81610243712395   -1.10634216885496
