    26
        -50.47000621  Gyration_radius:  2.45638435557 Dipole_moment: 3.932
 S           1.34345850119415    1.55706231581895    0.11166630988805
O           1.14763967491135    1.21802717358221    1.51206037195991
O           0.50299945381675    2.63359642486496   -0.34781005519924
O           1.28412248836742    0.37747005634779   -0.74893414987087
O           2.84351254057049    2.06565231265427   -0.01619908733957
H           2.78933607076663    2.93741729741693    0.36041452201425
H           0.00891371046010    0.30319765513727   -1.73304190579580
O          -0.79542143544737    0.17852699824504   -2.29725952803975
H          -0.61847197075693    0.63759516656779   -3.11963011103725
O          -1.36837876438810    0.39163653687955    1.81392053084490
H          -1.05311083757773   -1.03279505502783    1.39715417554943
H          -0.47321750491212    0.78402193758868    1.86940403526987
O           1.92683879399291   -1.29975947024317    1.15377900416438
H           1.86292570199201   -0.52725184258645    1.73851462875829
H           1.89038836249632   -0.87174862550680    0.27529324381510
O          -0.99834349492609   -2.39904423987897   -1.54475292364644
H          -1.07544165701831   -1.48567587871901   -1.88833689372584
H          -0.19967828927693   -2.75890310042718   -1.93579033806786
O          -2.03018987668705    1.75144057312158   -0.35018606777462
H          -1.92799586938306    1.15812735162040   -1.10819677803647
H          -1.80689901981766    0.89287751318421    1.08387418158578
H          -1.20164169151356    2.26782791649413   -0.33205014778756
N          -0.63351804014551   -1.98968224035243    1.10444702278017
H           0.41763388276395   -1.86727219253415    1.18328310649754
H          -0.86843718526079   -2.19339223184328    0.10578202636258
H          -0.96702353421771   -2.72895235241636    1.71259482683690
