    26
        -50.46887308  Gyration_radius:  2.48704575266 Dipole_moment: 3.032
 S          -0.05833976632316   -0.09268757101398   -1.20552700245582
O           1.24070511747866    0.32769506038173   -0.69817823294644
O          -1.04239373073542    0.97730829265312   -1.09795121018193
O          -0.51830681955705   -1.30232722612765   -0.51030824875969
O           0.05987172704452   -0.41933309511674   -2.70961930290094
H           0.72445504223589   -1.15416380972182   -2.80673693559167
H          -0.80503593449480   -0.93269490799081    1.01996521558726
O          -0.92143010304514   -0.66635214034995    1.96968218830346
H          -1.02402231886125   -1.48288377612430    2.46174835913018
O          -2.73767198421275    1.26661873066657    1.25498389377376
H          -2.25451527995313    0.54936342797051    1.70239066583936
H          -2.67594760173125    1.04906939881651    0.31552031833791
O           1.91174925935119   -2.28477302454862   -0.19428078278064
H           2.33733735625734   -1.42193568536897   -0.13040006361400
H           0.95586817207404   -2.07164888933270   -0.19685479443515
O           1.69225821835827   -2.44161334376653   -2.81834917103893
H           1.18745970685786   -3.23115702777130   -3.02434844291405
H           1.93429920773333   -2.50605731564849   -1.86017374913522
O           1.15659716290113    1.14051280962815    1.79816837696704
H           1.37765069556219    0.83002269539570    0.88938655905209
H           0.18398063518915    2.26814337248335    1.30301735646264
H           0.54152033508396    0.46918350229364    2.13925549118175
N          -0.60789951017412    2.73376010387062    0.75030081692294
H          -0.65209642696415    2.18953965340243   -0.16218806427272
H          -0.48373704765431    3.73005630063137    0.61616761431068
H          -1.52235608241800    2.47635449471720    1.19432915516262
