    26
        -50.46165292  Gyration_radius:  2.45539600757 Dipole_moment: 4.099
 S          -0.88351617793134    0.22728231649833   -2.01331535688897
O          -0.82360108673990   -1.21983779251904   -1.88285967941507
O           0.28203858141381    0.80109244201573   -2.63819144553288
O          -1.23097894807165    0.86432411218636   -0.74513475140709
O          -2.10903261807185    0.53978270481385   -2.97131320531011
H          -1.74440294086162    0.33446297902091   -3.82543956497839
H          -0.19515330510003    1.80988976761806    0.07717210124104
O           0.49210707690984    2.30369400542458    0.58607184488577
H           0.46179085859473    3.20517176164160    0.26240819146788
O           1.24743555597522   -1.87350804583023   -0.39112217903893
H           0.55639034943580   -1.86853296765576    0.84777720069863
H           0.52625029842871   -1.77509268084747   -1.05299041366059
O          -2.21134705150583   -1.24433231450151    0.41697421242800
H          -2.05946661393256   -1.75952160478928   -0.38840207954514
H          -2.00712787241258   -0.33102307235601    0.11516570041153
O          -0.07654397772666   -1.74124933763883    1.70436036869076
H           0.23036997337223   -0.84061626778644    2.16824108967742
H          -1.00569583032217   -1.58119185468334    1.29238584753464
O           2.17195633964910    0.55782112365438   -0.77357623917405
H           1.77039042228200   -1.03650744764497   -0.47601570521924
H           1.64722314133805    0.67374620377278   -1.58994347445756
H           1.81128777067386    1.21711764593735   -0.16081389423872
N           0.70053509995907    0.44657229673418    2.76651716738719
H           0.60424479419314    1.17953460025762    2.06346329751473
H           1.67745404247838    0.39171008012362    3.02631393087954
H           0.16739208796191    0.71921133653778    3.58226703605322
