    26
        -50.47294790  Gyration_radius:  2.44410450854 Dipole_moment: 1.576
 S           0.72726633131077   -1.10608548612922    1.54294601429440
O           0.23605476240736    0.20756748276666    1.92135225944595
O           1.82393533707941   -1.03385492230724    0.58960962890781
O          -0.32019515183372   -2.00585133413204    1.10383742007248
O           1.32530871752161   -1.73326274838978    2.86830623280478
H           1.50548600455547   -2.62215019522448    2.58388062314290
H          -1.07411607650659   -1.74708615292076   -0.28380183206879
O          -1.47066769560799   -1.60272636694672   -1.18223179040576
H          -2.15363508921283   -2.26855934014201   -1.27531171944771
O          -2.22032418583526    1.11868813578777    1.55070594685276
H          -2.26517031436638    1.88753780629192    2.12095030379360
H          -1.35936035252128    0.69076854124536    1.74194501003115
O           1.10701774804846   -1.02687657057561   -1.96556002226700
H           0.21085106499505   -1.39816941135872   -1.92079325561939
H           1.47416012990858   -1.14360119048153   -1.06221682225593
O           1.96041300117647    1.66954695564851    0.61035618489307
H           1.10467189244138    1.74194316670916   -0.76139381154124
H           2.51348738975761    0.88981212295573    0.46781325780580
O          -1.97098994997391    1.08907468932545   -1.11451712106940
H          -2.16893999604576    1.20003377984527   -0.16027747114983
H           1.28783163807792    1.32644889866171    1.23645999082076
H          -1.94110831491405    0.12258357557495   -1.24188504585809
N           0.55920692612788    1.52579643399963   -1.64216667290201
H           0.84238714966338    0.53928413638383   -1.93033431524804
H           0.75388937645221    2.20031069195829   -2.37287179039581
H          -0.48746035271269    1.47882730144412   -1.42480122264195
