    26
        -50.45924908  Gyration_radius:  2.48522202377 Dipole_moment: 3.647
 S           1.52686121061625   -0.91645422240952    0.66108253489152
O           2.07257042881581    0.43029701268132    0.56562546655071
O           0.76728477912858   -1.26287122929933   -0.53424505216724
O           0.82033305840786   -1.15373314690808    1.89851540535059
O           2.76301582876437   -1.91105808706307    0.65801974957653
H           3.05699147444380   -1.90560159615135    1.56382579508337
H          -0.39140753003447    0.68614456298018    2.16774575233895
O          -0.20582056992562    1.39353138825411    1.54203768752079
H           0.68975171618074    1.18627099883079    1.21759361831661
O          -1.10422291038425   -2.63722985991383    0.79583952855053
H          -0.55640789761852   -2.44891095363571    0.01928882018481
H          -0.57886619126487   -2.24670197045855    1.51361384372407
O          -3.14641340981139   -0.98942908764182    0.35796399398111
H          -2.42809477255349   -1.63036165494313    0.58240240116066
H          -3.78605941486680   -1.47589976361647   -0.16287005740263
O          -0.24524304031282    0.51514065401531   -2.04643711287314
H           0.15758407169451   -0.26146889953360   -1.54012711711132
H           0.49343298296416    1.28191018521864   -1.94580394754475
O          -1.97676861703994    1.24736558224863   -0.43707114374482
H          -1.06814311586485    0.84161293936382   -1.41477464273277
H          -2.51081551025496    0.46120154999799   -0.16762836989134
H          -1.40099888333453    1.43962669604039    0.34047642825785
N           1.56647406228768    2.20907743694049   -1.53119387749003
H           2.30519890970102    2.40768292466792   -2.19259890367369
H           1.95431669364273    1.65677982220361   -0.75973927441492
H           1.22544664663596    3.08307872808601   -1.15154151644650
