    26
        -50.46887312  Gyration_radius:  2.48697458996 Dipole_moment: 3.032
 S          -1.14228388549997    0.36372655887228    0.16732759059798
O          -1.05890100284447   -0.41148505363469    1.39894533548731
O          -0.94576600116094   -0.47866659843879   -1.00454300817885
O          -0.17684882576116    1.47094475181490    0.17615012405727
O          -2.56310059675448    0.96633194005491    0.13306132821802
H          -2.64084033811816    1.50664029846824   -0.69943941013706
H           1.29054106237216    0.86551456655817    0.37946462294628
O           2.18415474722888    0.43925256652629    0.45774742704008
H           2.82246260390822    1.12793817010126    0.26369421052909
O           1.45966618723816   -0.75422720940786    2.82351470098873
H           1.93771952976026   -0.30131099758163    2.10631092911745
H           0.57666647077166   -0.36193956764309    2.80949277509300
O          -0.11137068501371    1.69695768679631   -2.45337067775677
H           0.01149909440336    1.74519563935258   -1.48293927003000
H          -0.27404240600115    0.76060586030772   -2.61608364370380
O          -2.59044807074008    2.46959972996535   -1.98947499506810
H          -1.69135701658394    2.26006187789787   -2.34804933553619
H          -2.56535370159999    3.38826064789993   -1.71385252035385
O           1.34516783504277   -1.76324604066102   -0.97726669924851
H           0.48120939517163   -1.33119641393081   -1.17240549373666
H           1.89929773335962   -1.04600205841659   -0.62545614593004
H           0.83198486868201   -2.46498246431453    0.32935300339467
N           0.34905588626556   -2.57795042334656    1.27977813822723
H           0.02229603775605   -3.51876159686779    1.46450203670900
H          -0.43214631040403   -1.85660264358765    1.26959328081026
H           0.98073741850467   -2.19465922679132    2.02394570646349
