    26
        -50.47444124  Gyration_radius:  2.41415258774 Dipole_moment: 1.599
 S          -1.75725707169646    0.53411967304205   -0.71349599349188
O          -0.91129044523481    0.64091566563600   -1.89875969455411
O          -1.34223938748250    1.40966980666615    0.35594649480664
O          -1.91673102253154   -0.85094876763160   -0.29498924529146
O          -3.18950505092124    1.03270093198504   -1.16591130552968
H          -3.34065750519533    0.51093718310015   -1.94651854076880
H          -1.02156278039955   -1.41101041405275    0.92679307864351
O          -0.44084642867908   -1.77389825008168    1.64378655444422
H          -0.94742585772231   -2.46688278510554    2.06958373035408
O           1.78835413349464   -1.71399387633486    0.00034727725537
H           1.13200933214147   -1.91760352243608    0.68737508148351
H           1.29458266607320   -1.81153911542850   -0.84717683955298
O           0.03363319701930   -1.83126896909966   -2.00070064393439
H          -0.19194270025146   -0.89353238187213   -2.15112066490868
H          -0.72284876989568   -2.16371517761361   -1.50565044178041
O           0.79398788982691    2.41885258011251   -1.01685161682967
H           0.24949161988907    1.78764686678859   -1.53541505819759
H           0.16241870534489    2.76821448634697   -0.37726872244966
O           0.21718773375201    0.76606808013935    2.42143308873445
H           1.48361427596017    0.85996426334035    1.45938026816690
H          -0.45122283212759    1.13302190732431    1.80827363640339
H           0.02352417942726   -0.18703980609677    2.43187627515374
N           2.13776163811780    0.81281746135901    0.61951278613972
H           1.72870951377795    1.45856190024472   -0.11264942242321
H           2.10560216298919   -0.19897858699315    0.27928887476583
H           3.08265279430445    1.08692082670566    0.86291102337621
