    26
        -50.46073060  Gyration_radius:  2.41367253756 Dipole_moment: 3.491
 S           1.66455600857712    0.05269644504830    1.18185575986264
O           0.98348244946772   -0.61185314078328    2.26734229926282
O           1.57498448958536    1.49885077519633    1.22277776597147
O           1.27812493609780   -0.47831640612874   -0.12737123387962
O           3.20547948641361   -0.31286804140841    1.30552938756422
H           3.44472813030447    0.00140134447643    2.17185080090308
H           0.00053315903839   -1.48682012822393    0.36793407014230
O          -0.81854191366034   -1.96153998579558    0.61353676156636
H          -0.70753712332107   -2.13681213736930    1.55178789027829
O          -0.86803147708440    1.35142861192822    2.22086054283544
H          -0.05169752509751    1.73316611286913    1.85333656283787
H          -0.53723091257202    0.55064386307109    2.65150885343078
O          -1.44292020227452    0.86109432760648   -1.92121495471410
H          -1.06910704372577   -0.10239500040659   -2.20231425051247
H          -0.59256159354918    1.39116334145970   -1.74408702449812
O           0.86482408591408    1.80211209417205   -1.37623052604138
H           1.16274395492278    0.94630246508903   -0.99835714293388
H           1.01909168789369    2.42298619050778   -0.65588480578897
O          -2.32883127984005    0.23923088980312    0.31902913578214
H          -1.91419600704527    0.77949942631360    1.03618967793560
H          -1.89161887082429    0.67499870303392   -0.97266367919590
H          -1.93790299384314   -0.65721355011072    0.42527658283901
N          -0.39968078868009   -1.41404291468714   -2.32538252684968
H           0.45382671673752   -1.26082273206964   -1.79225136328541
H          -0.15798879622530   -1.76422579970032   -3.24284378104732
H          -0.93452857722010   -2.11866475389696   -1.83021483247647
