    26
        -50.45477958  Gyration_radius:  2.80038618137 Dipole_moment: 8.785
 S           0.03118597884532   -0.81440429061722    0.67605506931072
O          -0.25171687067473   -1.20823964896784    2.13284619948305
O           1.33708060039467   -0.15082585010654    0.61637522099235
O           0.02041294660427   -2.03365089163265   -0.12071277884999
O          -1.02303313544846    0.10761035341736    0.22133093350522
O          -1.43022093691437    2.24875188764985    1.70071083238895
H          -2.37631144338063    2.24671174038259    1.85546959086477
H          -1.25613143652947    1.50305621335350    1.08213801596686
O           1.96413288331960    0.47622442139450   -1.85793812501437
H           2.84869210696725    0.13534595369152   -1.99860500644751
H           1.77441245108256    0.33800605208646   -0.89738151004463
O          -2.12783464863812   -1.44609948652828   -4.28101560685289
H          -2.93536709497895   -0.99529771383610   -4.53645484328748
H          -2.32070053050187   -2.38541598803057   -4.23944189258171
O           2.49908383343972    1.00440458613690    2.70231820764022
H           2.13381904942946    0.64188234860997    1.86643073033263
H           3.05222658641161    0.31278319945382    3.06933491049271
O          -0.04581119618731    0.88317992252502    3.54330291622241
H           0.90543187473153    1.08260274099024    3.40700108648929
H          -0.53296083336065    1.53667941956873    2.99510044627786
H          -0.19696604087957   -0.38110454519547    2.74844066986681
N          -0.42772431211079   -0.61933624978211   -2.19624903020050
H          -0.98566346527511   -0.84279009102065   -3.02934402763256
H           0.49060638167985   -0.16427356527543   -2.39589330987364
H          -0.92316590437564   -0.02245784302392   -1.49918998761451
H          -0.22347685365005   -1.45334267523931   -1.56462873143442
