    26
        -50.46321432  Gyration_radius:  2.4577966151 Dipole_moment: 4.012
 S           1.47582631436666    0.64915091854196    0.04875958255017
O           1.05712051279299    0.46273869775545   -1.34995091741562
O           2.41028986320470   -0.35878946187422    0.48490978984512
O           0.14650262274750    0.45736669988786    0.89792433883273
O           1.84560824939090    2.02594005316708    0.31156818251826
H           0.64030575338761    2.76707634467765   -0.43429613434032
H          -0.18394310096056   -0.47542826922335    0.74037355131646
O          -0.62429188677860   -1.98190340824067    0.44888841668502
H          -0.10246264687092   -2.32948406377262    1.19651919084118
O           1.45734481391379   -2.23734903609382    2.12160092799056
H           1.66603356930791   -1.98180108189333    3.02070303510608
H           1.90334672130699   -1.58023881437453    1.54548418647178
O          -2.79064156480609   -0.51630595561725   -0.53102749342815
H          -2.06922372371628   -1.09078143103352   -0.22700131899263
H          -3.59995008339897   -1.01909740146759   -0.42923119609043
O          -2.14981132080168    1.92645101457590    0.43582248863094
H          -1.50144145881325    1.57021910813774    1.05936156548716
H          -2.53330494817443    1.13006805019414    0.01459169068318
O           1.19471878964992   -2.17421453961830   -1.44202261243621
H           1.17304955987127   -1.20750100999325   -1.59735314006925
H           2.00438853274198   -2.32273065435987   -0.94495806633955
H          -0.06396096895668   -2.18756745946373   -0.34439089724341
N          -0.17071597447588    2.69325166768036   -1.11871979728386
H          -1.06926141650114    2.51890611193146   -0.57023159835049
H           0.11962345877047    1.78799125927378   -1.57461000899913
H          -0.23514966720474    3.47403266120350   -1.76271377597969
