    26
        -50.46073166  Gyration_radius:  2.41344246182 Dipole_moment: 3.477
 S          -0.47138379788099    1.10638775020770    1.64949293025358
O          -1.78738764426396    1.40815781197393    1.13856354817440
O           0.54452789344531    2.07082424088361    1.27663306164355
O          -0.05692332512766   -0.26513768325793    1.34573811795602
O          -0.56703484710951    1.13673972209667    3.23481786711179
H          -0.84701118703657    2.02566850399014    3.42924609451716
H          -1.33132546119209   -0.69736423666190    0.30414609311359
O          -1.97454840776633   -0.91551986074644   -0.39958489043516
H          -2.70623405200600   -0.31520659459194   -0.23329836183983
O           2.36938942610282    0.24072298749779    0.46093466423900
H           2.37003571605152    1.20302591899605    0.50823326235357
H           1.54225289614007   -0.00303658760136    0.93055704139989
O           1.66422294242733   -1.03635973161077   -1.63151324756745
H           1.20786359131222   -1.83514653106042   -1.08437639638797
H           2.07357905534402   -0.46352069611223   -0.89653663663745
O          -0.62999754158104    2.44935520349054   -1.06213150205172
H           0.03237880765511    2.52001105657232   -0.35297222999671
H          -1.44017912853045    2.27878069413608   -0.56083793682147
O          -0.41973352961496    0.13458300269773   -2.32037068893953
H           0.82584526291657   -0.49756703323041   -2.01023911216314
H          -1.08085156858854   -0.32838085457136   -1.75784718795799
H          -0.43366991519778    1.07141968608585   -2.00339596824442
N           0.43940443549286   -2.71102926511174   -0.17351592380734
H          -0.49176246639496   -2.85819898162224   -0.54639864197237
H           0.33927580700074   -2.11815242919179    0.64778612242761
H           0.82926703841005   -3.60105610326911    0.10686995164453
