    26
        -50.47444114  Gyration_radius:  2.41400460609 Dipole_moment: 1.598
 S          -0.54708978542525    1.84137647282656    0.43454420170981
O          -0.66227744316641    1.18432000889739    1.73340104494703
O          -1.41123645191567    1.26500190875047   -0.56717068008183
O           0.84127092480651    1.94243555568062    0.00882605432423
O          -1.05477611271402    3.32330530988887    0.65969694193501
H          -0.53834449548064    3.59579049680373    1.41039773880160
H           1.41613431887669    0.87603667768084   -1.05956115544439
O           1.78808155164399    0.19564376181647   -1.67727208427048
H           2.48347474329450    0.63569985115025   -2.16817497802385
O          -2.42584488679571   -0.64364102092831    1.10566327964494
H          -2.77439781233704   -0.11915656814198    0.37537274099956
H          -1.80139009095408   -0.02252045329142    1.53959546714467
O           1.81343249742616    0.28097354246498    1.99737117032769
H           2.14165828285682    0.95536206656434    1.39274411385869
H           0.87327400652606    0.51882240351273    2.10786401632975
O           1.72086073897511   -1.75826710842098    0.28568125957386
H           1.80934597950090   -1.14081899594403    1.04891031211139
H           1.92872376825005   -1.21337476046996   -0.49156102185379
O          -0.74276756689379   -0.58590310586013   -2.36700732236571
H           0.20959667090812   -0.39131944184281   -2.39944531488355
H          -0.84079543443850   -1.69223014340407   -1.22432418657292
H          -1.11757156708139    0.16580225632655   -1.86516015106809
N          -0.79887771599863   -2.21052555305616   -0.29432060801055
H          -1.45315160526519   -1.69836223498806    0.36155081884729
H           0.20966326930182   -2.12153877149677    0.04556133780074
H          -1.06699580390680   -3.18291216453212   -0.39318301567739
