    26
        -50.46247236  Gyration_radius:  2.42036264673 Dipole_moment: 7.253
 S           0.12075754513729    0.40760026718365   -1.33827598467402
O           0.72572186392069    1.28617948523219   -0.34226402946944
O          -1.24470547466693    0.75532895419577   -1.64179593457369
O           0.14373848377680   -1.04365258676595   -0.71669367683140
O           0.97947158226992    0.25779960898099   -2.51261407988076
H           2.07156126290298   -0.45671768762407   -1.94630546587296
H          -0.00944857608141   -1.02240418197235    0.26939445860238
O          -0.05175533063861   -1.07285907187649    1.86872427412977
H          -0.42105498135966   -1.91384739593545    2.14468142234531
O           2.44117641648896   -0.09703074830164    1.01467527712649
H           1.81421286416168   -0.57939956963038    1.57290466927155
H           1.88670379525691    0.61939323455257    0.62186540781793
O          -3.00730240840827   -0.63068463042476   -0.22850100331355
H          -2.35137430560242   -0.17414723532576   -0.79842883622945
H          -3.85841122260018   -0.49822165076748   -0.64832354929735
O          -1.43688154615034    2.59468584935280    0.51351388494156
H          -0.53966241472895    2.28108363218931    0.29768507826857
H          -1.93704815754912    2.42302335882744   -0.29024414599543
O          -2.07214927430546    0.48972927439429    2.06185993571722
H          -2.58590978532578    0.04169494180138    1.36277914987326
H          -0.78933480756174   -0.39583831525548    2.03743374146066
H          -1.85562600156300    1.36882548696853    1.68112088851133
N           2.84150363276197   -1.03858461548022   -1.39061671756899
H           3.77062067737758   -0.84672321093710   -1.75282926852495
H           2.61193359032612   -2.02393433787878   -1.48078218028308
H           2.75326255215670   -0.73129883552550   -0.35896332556337
