    26
        -50.46073148  Gyration_radius:  2.41332890016 Dipole_moment: 3.486
 S          -0.42327296400514   -1.24862908438620    1.55712117893733
O          -1.75619654708375   -0.68312964265076    1.62807506187874
O           0.53979421562060   -0.59816222975034    2.41342332385840
O           0.04668925602359   -1.36134485291947    0.17451998607495
O          -0.54175265835365   -2.75510473192829    2.04675332739704
H          -0.83290661738415   -2.67863774223768    2.94997556837346
H           1.44862198300730   -0.40474035509175    0.29869433021289
O           2.17627364312392    0.24861327063569    0.31430178937741
H           2.41769354516718    0.29834724335385    1.24307723449974
O          -0.74910202402363    1.73388337241169    1.99267905087828
H          -1.40610392912198    1.03008002069772    1.85140327896269
H          -0.04506919820573    1.25879072687031    2.45643411408087
O          -2.12525321003378   -0.52009334303276   -1.05084508255736
H          -1.36335284009237   -0.98842625097066   -0.64563875031381
H          -2.67288116431375   -0.29838403714546   -0.28972052835437
O          -0.59520963670349    1.17816138384065   -2.18244116646166
H           0.16957228655618    0.46051411068815   -2.39996029405382
H          -1.33503178783776    0.60572491419335   -1.78091660276116
O           0.52395337799133    2.28758402930883   -0.25669428147727
H           1.26366938420193    1.66030004490220   -0.09261827985158
H          -0.17309376773834    1.74037279517057   -1.38220443603386
H          -0.02808614550572    2.24340921238719    0.56276544060167
N           1.19149978658341   -0.60675844454066   -2.40469791609577
H           0.84750744440874   -1.22595266921805   -1.67370695835993
H           2.07680537233418   -0.23273403704593   -2.08198378524774
H           1.34523221543118   -1.14368368352414   -3.24779561358231
