    26
        -50.47157774  Gyration_radius:  2.49391730665 Dipole_moment: 3.805
 S           1.09460143039215    0.96432149075204    0.24890476466365
O          -0.14743377795279    1.40104116691362    0.84200390465242
O           0.91402116498479    0.52475612711196   -1.12912420738384
O           1.74214665689022   -0.07813860747523    1.05609279369096
O           2.07837015378546    2.17579839140962    0.18084333124273
H           2.29785824508455    2.32264595474330    1.11955746135352
H           0.77407160938129   -1.35239546363228    1.17539981010217
O           0.14880844790440   -2.12214608538760    1.21304060655512
H           0.51079838775222   -2.72510095950090    1.86430469835154
O           2.66795890479573    1.71758811494932    2.72454968526138
H           2.31346694283846    0.89927487971064    2.32088529145599
H           3.59950330596991    1.55778672674114    2.89265756752840
O          -0.00769623754102   -1.94868796049381   -1.52736118151751
H           0.07172622956236   -2.28817146896134   -0.62029494622196
H           0.48560377742894   -1.10141475268616   -1.50854575470036
O          -1.15532384077902    1.54669478893730   -2.37555070004475
H          -0.35965537085823    1.30377591841995   -1.84559946929653
H          -0.83785222627686    1.68905450991848   -3.26903046769302
O          -2.01646815153216   -0.40397561758731    1.15522966934994
H          -2.33644208761669   -0.53507272196030   -0.35362974069027
H          -1.41713870320188   -1.14348809585532    1.35038527946638
H          -1.42205589924006    0.38350358992143    1.13874634711319
N          -2.30314296011492   -0.67297266827752   -1.42105275060496
H          -2.05185394312361    0.24633267472193   -1.85513412981119
H          -3.17162844143951   -1.04309299038158   -1.78841953353256
H          -1.47224363705725   -1.31791695206704   -1.58885832926715
