    26
        -50.45477932  Gyration_radius:  2.80036059949 Dipole_moment: 8.779
 S          -0.96939065816615   -0.36089445942250   -0.23132690426808
O          -1.14080433857836   -0.23930877708688   -1.67250381494444
O           0.32039328568033   -0.99889065726560    0.08209487336340
O          -1.05489264113263    0.94586376868646    0.42764256367159
O          -2.10230993149161   -1.25139141551225    0.29874770286988
O           0.78773982828487    2.58321981321870   -0.48443962038254
H           0.11375718126244    2.01188705416919   -0.04048558174095
H           0.32794382698298    3.39040264685358   -0.71996858051309
O          -2.28317813121219    1.35338147968708    2.74326344602244
H          -1.77158821905076    1.29687443763500    1.90745982533784
H          -3.17362635467145    1.60257967899914    2.49022007195026
O           0.73588639867678   -1.62772636132650    2.60616217262862
H           0.65016156273985   -1.33887490657438    1.66900773920298
H           1.00427826814718   -2.54753626553746    2.57433978123616
O           2.96762438100787   -0.45991482073756   -3.99157996168319
H           3.74049984930606   -1.01939080868660   -3.89063399865105
H           2.45776902149643   -0.79978205249134   -4.73041856661941
O          -1.91438207643521   -1.30311578426492    2.82218893455953
H          -2.05733194100360   -1.31868082217055    1.32809983060432
H          -0.94778685996344   -1.42982633728311    2.94289001822075
H          -2.08288980443755   -0.35701620146375    3.02139946210615
N           1.32572260169321    0.38451736489528   -1.86709096023390
H           0.30756185891544    0.19661120860895   -2.11889303914017
H           1.39442152019163   -0.25040288443577   -1.04218313645225
H           1.99586583028892    0.17354842617978   -2.61651543926102
H           1.36855551147006    1.36386669533008   -1.50747679788282
