    26
        -50.47157782  Gyration_radius:  2.49396777169 Dipole_moment: 3.804
 S          -0.40424602398945   -0.82413615433324    1.16016782354769
O          -0.28098440661862   -1.51170717029921   -0.11923499874405
O          -1.20364529299708    0.37357743221032    1.05302863928545
O           0.91604326415273   -0.54311619320624    1.73914043897905
O          -1.12378971972048   -1.83117827674969    2.11330781743223
H          -1.03203117395127   -1.40122012865228    2.98373119841046
H           1.70712423461574    0.49654792707780    0.80695145287349
O           2.16350821156084    1.13146207125325    0.19582355847014
H           2.94920822460838    1.42585809273688    0.65932137438945
O          -2.21178340384154   -1.05356754089237   -1.83431648446057
H          -2.34840359507833   -1.90255361808275   -2.25853111807381
H          -1.59800901035537   -1.22742023692441   -1.08195028121183
O          -0.10031591872540   -0.48335566304207    4.15368537774570
H           0.43802626045553   -1.01087520004563    4.74819402942754
H           0.44190069829486   -0.32371108580557    3.35449888088389
O           1.53762011849781   -0.59989409656048   -1.84739430279600
H           2.01160543489684    0.01184242665590   -1.25969245876339
H           0.96746405970683   -1.11858258506653   -1.24126878621707
O          -0.25862671787249    2.30138474718870   -0.44372383640769
H          -0.74008371828492    1.69885658781608    0.17182276000238
H           0.67759046783405    2.15029078092435   -0.23207972955837
H          -0.49060181321459    1.56345724539046   -1.78477521399151
N          -0.51120113979952    0.86308376381078   -2.60237133753148
H          -0.57380245107116    1.32404673671377   -3.50226749216275
H          -1.30964675199146    0.20510890009424   -2.44035086077942
H           0.37708015292497    0.28580121780431   -2.49171643075253
