    26
        -50.44799285  Gyration_radius:  2.63974909551 Dipole_moment: 7.744
 S           1.45728058030549    0.77463193218421    0.10025680606003
O           1.12263907997065    0.48179648095631    1.45536478000453
O           0.47446379982275    1.54589247852097   -0.62601838863054
O           1.72561827871764   -0.53056890661855   -0.68851897467852
O           2.81379530594312    1.47621098473416    0.01647974148773
H           2.90198373873211    1.71335131106216   -0.98154825671137
H           1.01175600487809   -1.23770801017464   -0.49785566116546
O          -0.03051016978532   -2.27176060494613   -0.13148611508819
H           0.31253126675179   -3.16047182522214   -0.24453430458326
O          -2.63000474842651   -0.74199102654915    2.18784848159494
H          -2.92708352740377   -1.19636883801136    1.37940582782073
H          -2.41985242415262    0.15153311475657    1.88462436089517
O          -2.69418831914660   -1.31290820235060   -0.50964101570044
H          -2.54503956084580   -0.35776514305333   -0.46428024534984
H          -1.81647643129402   -1.71338347624398   -0.55699000150197
O          -2.01459700238773    1.31312996131561    0.31633677310735
H          -2.42069654793007    2.17435384432456    0.20736672158349
H          -1.09194653843293    1.40322083449284    0.00795733835425
O          -0.17916490953502   -1.74394740413805    2.34363521739336
H           0.35528194272323   -0.93464355669922    2.31330173756375
H          -1.11362511719610   -1.43464239089004    2.45536451285595
H          -0.11660909202122   -2.12636334634337    0.88569311459783
N           2.57755786960812    1.91851278663172   -2.48837482379492
H           2.87258857659574    2.75373267953558   -2.97624964614030
H           1.57345395833298    1.94755582952081   -2.33706885894161
H           2.80084399618059    1.10860049320562   -3.05106912102708
