    26
        -50.47157770  Gyration_radius:  2.49384431891 Dipole_moment: 3.801
 S          -1.18834634262231   -0.74907172533614   -0.46495181323086
O          -0.70676149948315    0.16877685578228   -1.47031702360513
O          -1.28847227720758   -0.11690028908782    0.84471708728734
O          -0.36585613572694   -1.96456288543599   -0.40413199391212
O          -2.64080731536303   -1.18991999958587   -0.83385371846992
H          -2.49892604440723   -1.74798257832507   -1.62087105713638
H           1.14858455756985   -1.57766416983735   -0.04088255147799
O           2.06948113407803   -1.29465787841949    0.19744385572134
H           2.62252236342407   -2.06872951321431    0.08027382911626
O           0.94834674369635    0.10269165193936    2.28442036410170
H           0.05150704960098   -0.07063748479914    1.92770503657875
H           1.52836057376557   -0.46719555383907    1.75236843367232
O          -1.58277513123570    2.48937127999441    0.81575031011894
H          -2.19310496773885    2.65976421733270    1.53536931968754
H          -1.56824205475375    1.50934704128277    0.70489088720451
O          -1.57962889553272   -2.95231441119268   -2.50582415224799
H          -0.92082613370932   -2.71717779307293   -1.82106070231419
H          -1.83633352632266   -3.86181998589450   -2.33694667029639
O           1.73283037553404    1.07395781074692   -1.18791902218560
H           1.40578257492959    1.97371480283469    0.02871843252410
H           2.10336094490954    0.26048965185616   -0.80693068377306
H           0.82105666925852    0.81294023741917   -1.46021047950260
N           1.08510006733916    2.37699450198655    0.97420623142036
H           1.65093504410791    3.16406756246948    1.26843319759807
H           1.12961975853801    1.55640869161574    1.65185996916352
H           0.07259246734946    2.63010997277757    0.88774291396424
