    26
        -50.47157786  Gyration_radius:  2.49387110194 Dipole_moment: 3.797
 S          -1.33802730332260    0.48928848584072    0.39838127911615
O          -1.29726946047165    0.12424415300006   -0.99813158420383
O          -0.19990865605651    1.31758044733255    0.77710985904859
O          -1.44299968534719   -0.69307838644680    1.26340800227145
O          -2.60397238740082    1.36726731429796    0.65695467526467
H          -3.33130988033477    0.72576529522766    0.55494788736314
H          -0.16981935783574   -1.64416925625165    1.03935544373228
O           0.63882565417791   -2.19608725396420    0.87697016807568
H           0.48306632943354   -3.03047227500662    1.32241079008759
O          -4.01347997300288   -0.87423053087032    0.78720095285528
H          -4.49213665419492   -1.00160976292384    1.60943024604175
H          -3.07364680842730   -1.07002798593652    0.97852954681180
O           2.11319520024422    0.08864715625269    1.29105212699970
H           1.79509543040783   -0.82923546739786    1.31413072327234
H           1.29242559643218    0.62515275250724    1.29218090019340
O           0.90003282972370    2.67680424122313   -1.17809619237095
H           0.35130986819336    2.20095317080193   -0.51071859970559
H           1.12896509908070    3.51586910904289   -0.77445231033747
O           0.68692952525309   -1.39819450957513   -1.76959525615038
H           0.74732871432907   -1.91657916948198   -0.94995044545735
H          -0.12849824476710   -0.85625916239511   -1.64661279812589
H           1.76809804289337   -0.29901215867870   -1.62929442362883
N           2.42596239968357    0.48241001707181   -1.28872803626395
H           3.32368657894504    0.46112392359035   -1.75765201149723
H           2.50290401882813    0.33714773218083   -0.23634086740067
H           1.93324311354375    1.39670213055890   -1.42249003598927
