    26
        -50.45084739  Gyration_radius:  2.48285564794 Dipole_moment: 1.865
 S           0.19895282495452    1.52544952625270   -0.17910783749033
O           0.57007511494200    2.26428380536246    0.99295334727484
O          -1.06244198795055    0.83042488720550   -0.04270170348916
O           1.30284706980295    0.50409733615792   -0.52609391847227
O           0.17741021076890    2.42850593025323   -1.39233647561917
H           0.17560241061526    1.82863981496455   -2.25377433328875
H           1.53816607085768   -0.04188462936517    0.29311170454427
O           1.69074957353674   -0.81669093834926    1.62462871911789
H           1.92031855762804   -0.19056960602113    2.31922382579656
O           0.29383283229042    1.03733518252142    3.34433322294599
H           0.18307855861564    1.67771702916566    4.04828308164086
H           0.37742102773919    1.55749476298873    2.51873483056925
O           0.06148147877917    0.96674611566842   -3.41211677312907
H          -0.36198232991657    0.11433547395927   -3.01990643350792
H          -0.58489135703845    1.34842585002770   -4.01064214360170
O           0.15874945952355   -2.70103995358099   -0.24502950321688
H           1.05841956305703   -2.48660657446438    0.01296735294016
H          -0.40420896946506   -2.43113606055012    0.48934036738751
O          -0.93129304405358   -0.99141262066514    1.89846362695121
H           0.74147613898672   -1.04161816605641    1.80072111361280
H          -0.89141898791762   -0.44910862306042    2.69878559650947
H          -1.13748067335813   -0.35937983686574    1.17929353141186
N          -1.14244196871407   -0.98960197450728   -2.23167442621547
H          -1.43321297374890   -0.42571412183812   -1.43516873242773
H          -0.53864587361874   -1.71675842704353   -1.85239435156233
H          -1.96056274630770   -1.44193422217418   -2.61989366867645
