    26
        -50.46081185  Gyration_radius:  2.48376298818 Dipole_moment: 6.479
 S           0.27282850539687    0.31825447271196    1.00303806019998
O           1.16967058936115    0.48100061711499   -0.26308416673909
O          -0.33872336901121   -1.01764481061745    0.89149088727839
O           1.20026362597382    0.36812715803753    2.12328750258069
O          -0.71720772936940    1.37406555513919    0.99513495535028
O          -2.05287224735966   -0.91907843505843   -1.17747689677155
H          -1.46613752812330   -1.12498809559233   -0.42629160806929
H          -2.74643802774028   -0.36084185690067   -0.78212553397246
O           3.05557495665723   -1.38496689586175   -0.75859642827877
H           2.85416472397984   -1.73781457322806   -1.62756803935638
H           2.52504393630972   -0.56840654824579   -0.66895363445013
O          -3.31626557234604    0.70847848483475    0.60999529268608
H          -3.64085700614146    0.33228926503677    1.42922392187056
H          -2.41543957353195    1.03199790350681    0.79742471079037
O          -0.97651717091616    3.01345105699237   -1.12854532956758
H          -0.96547870862843    2.51800797167343   -0.28693489171818
H          -0.36629605098860    3.74398807222921   -1.01955929915577
O          -0.29502490154643    0.68459422108742   -2.25246200443186
H          -1.03389381667851    0.05693928359168   -2.01310513900002
H          -0.64824308874550    1.58699617956922   -2.10044483050048
H           0.56193031301586    0.56808136342217   -1.14021948616958
N           1.90429618310665   -1.98918273446986    1.57545514653804
H           2.13267833689959   -2.72386865038044    2.23593045546671
H           0.89429451968929   -1.98172392814206    1.25349855540039
H           1.88789310160350   -0.99717363262157    1.99856155293368
H           2.52075598913429   -1.98058140383454    0.73232625708725
