    26
        -50.45019476  Gyration_radius:  2.45250361304 Dipole_moment: 4.160
 S           1.91075362433419   -0.19205675364461   -0.49964207227534
O           0.66457307678592    0.35955967719664   -0.96737039209159
O           2.63184837679334   -1.00675909895503   -1.41188756240089
O           1.64781594894610   -1.02067095675893    0.78233314144536
O           2.78708823147291    0.97976814605491   -0.00281789836239
H           2.20019331974886    1.79593040662247    0.06723132857235
H           0.78842433039555   -0.75919234284523    1.23356683363725
O          -0.59936650479430   -0.50576801514607    1.91318038554200
H          -0.68651891562100   -1.06767170273857    2.68515493170861
O           1.09969353441993    2.92516180859582    0.00466492578285
H           0.80415615719936    2.82046530517661   -0.90409749324342
H           0.32938470163665    2.66774681215942    0.55498202732242
O          -1.98115333812228    0.92347963530860   -1.06382419018788
H          -1.04272847299657    0.74296009716132   -1.23362855352432
H          -1.98565485650890    1.51984981240817   -0.30634194764971
O          -1.06691658328125    2.11047704617466    1.42287445956283
H          -0.89782211718975    1.17315669188694    1.64635228855147
H          -1.27761607369318    2.56318492941418    2.24102249373693
O          -1.92211709168238   -1.53159057669494    0.03596712045343
H          -2.15994453599814   -0.71929715900641   -0.46195559795488
H          -1.22994721921457   -1.97936247473018   -0.51376990913347
H          -1.18301790928241   -0.94583731391455    1.16893686247905
N           0.08074316859529   -2.61933600208479   -1.43886247549171
H           0.87237301271574   -1.98370193889163   -1.42907318259618
H          -0.20119097144985   -2.73118956125030   -2.40578747178184
H           0.41694711679241   -3.51930647150275   -1.11720804209965
