    26
        -50.45019475  Gyration_radius:  2.45257852248 Dipole_moment: 4.160
 S           1.93784287374545    0.32621217801996    0.27596166066568
O           0.98100443812377   -0.03895462430513   -0.73753514942606
O           3.08628630699818   -0.49957199037834    0.39853091747089
O           1.22652202158043    0.36926183007993    1.65121833864933
O           2.34553239515646    1.79639654827961    0.03033654335764
H           1.69558189031913    2.19038662681547   -0.63139193135829
H           0.23124576014633    0.47786779035326    1.56076679980094
O          -1.33309197166754    0.50413062587677    1.49785952245079
H          -1.69030543208466    0.51230013603650    2.38758511048282
O           0.61356941404443    2.53046607244270   -1.72847732677076
H           0.77545136640571    1.81592338643037   -2.35083822803043
H          -0.28437089264398    2.36010495399863   -1.37196413173693
O          -1.84289941890943    1.91205544780140   -0.75195405355882
H          -2.45387992230237    2.62509173581100   -0.55945586787516
H          -1.68066577940239    1.43582009575381    0.08708153254096
O          -1.38222944119581   -0.73089445861956   -1.86091968255951
H          -0.45417023992417   -0.58875888326478   -1.61475318666234
H          -1.80124745484307    0.13101250643856   -1.75597204616480
O          -1.52840114922574   -1.83302907881665    0.58942596497224
H          -1.61244226346406   -1.63156357125995   -0.36799943113427
H          -0.61371614222969   -2.19811617975455    0.69832746603086
H          -1.45883366887376   -0.46973664680022    1.14560489097551
N           1.04061170740363   -2.67343223964589    0.84191695998973
H           1.30145848001486   -3.00039659134685    1.76469134974562
H           1.65837531759094   -1.90092257296702    0.61292388085956
H           1.24277182522497   -3.42165308699551    0.18903011727937
