    26
        -50.44892245  Gyration_radius:  2.61009549424 Dipole_moment: 7.142
 S           0.94384436688812   -0.56675775276964    1.04727699162591
O           0.72340512735831   -1.37366621936941   -0.12710324348663
O          -0.23301395672070   -0.18524322621503    1.76223412042443
O           1.73673320089465    0.70027727345369    0.62478254636944
O           1.93324434586078   -1.26132326597386    1.97687206177667
H           2.64060502016105   -1.66907991548467    1.33842380367179
H           1.14738267452651    1.31513351786808    0.07666587652390
O           0.19220128514826    2.10904310785632   -0.84885100413413
H           0.66849849152923    2.68788710454254   -1.44728915606364
O          -1.49729672460435    2.31063960285721    1.42789104864401
H          -1.03497249112418    2.48247756176571    0.59835704032984
H          -0.99145169700345    1.60844764168068    1.85795070677825
O          -2.95593162621855    0.01777023142109    1.00894946324851
H          -2.76923597656413    0.96322861556148    1.15242335822812
H          -2.16486962747191   -0.42297507082736    1.34297122923463
O          -3.09840409256163   -0.31314784284528   -1.62641135293007
H          -3.10012638407512   -0.27610706683029   -0.63946587210662
H          -3.76259563850705    0.31342440302097   -1.91654747791618
O          -0.50309924474971    0.01632681843555   -2.11500360689426
H          -0.09828791460666   -0.63883628670997   -1.52099517460910
H          -1.47468248999263   -0.13568146794384   -2.04225308862241
H          -0.14959215585683    1.32959138675018   -1.41277895900908
N           3.39763795524983   -2.18053661789722    0.10587668161717
H           2.57926108989858   -2.15078852784540   -0.49634116178514
H           3.76517388199974   -3.12222489531177    0.13160913426618
H           4.10557256054103   -1.55787909918694   -0.25924397519048
