    26
        -50.44692309  Gyration_radius:  2.649187553 Dipole_moment: 2.877
 S           0.09568214379010   -1.02228789477341   -1.48629773287561
O          -0.88400318732941   -2.04712460392696   -1.68092369452924
O           1.05235397472960   -1.19447546986842   -0.44223324675988
O          -0.67599396948992    0.30260478437624   -1.31198175419543
O           0.87744333373906   -0.79046735069472   -2.81366588754092
H           0.18958716781278   -0.78885922106466   -3.52190097849968
H          -0.15521862001937    1.03733074667518   -0.80926392193268
O           0.60078313646230    2.10155058380561   -0.09281281256022
H           1.00479384538976    2.71662763580747   -0.70766010858811
O          -1.43234585955194   -0.90751519504023   -4.03092186753892
H          -1.55810950284664   -1.54806517069078   -3.30965840831485
H          -1.96909827738648   -0.14210175387076   -3.81001491695999
O          -1.02761687885380    1.23242316794437    2.16716648433831
H          -1.29336349006258    0.34777833754192    1.82836701471540
H          -0.70651287059450    1.72429330344536    1.40411674952637
O           1.25030075194181    0.53777619016927    3.35857656101795
H           1.45672682460243    1.17754103219730    4.04101687579235
H           0.35390195266556    0.77794232016599    3.01578349378861
O           2.42938266463425    0.69414352548777    0.97253793467568
H           1.37113463703503    1.59842543182861    0.36292705428394
H           2.12872735421001    0.58261301133693    1.90576257112230
H           2.18720671664972   -0.13007951766501    0.52265447010369
N          -1.36745530297379   -1.30431669430338    1.20637152921264
H          -0.38199467212098   -1.51502008069674    1.09330449114546
H          -1.79025886355208   -1.44895591223893    0.29751015424701
H          -1.75605299891647   -1.99178125594980    1.84123993629457
