    26
        -50.46081183  Gyration_radius:  2.483715007 Dipole_moment: 6.479
 S           0.61102579058185    0.46993939576054   -0.76681846894767
O           1.74031036354317    1.28871066511426   -1.18145357841953
O          -0.45257439778955    1.30596052119596   -0.18306780424488
O           0.10586733538356   -0.41976037031925   -1.79058841731477
O           1.15965992139045   -0.39883988072714    0.40706938995444
O          -0.05977289588059   -3.07522456312802   -1.35941318148138
H          -0.02027563372153   -2.14613491514194   -1.65796082395450
H           0.78054923411096   -3.47036469642692   -1.59539367183208
O           2.04711364623012    0.84676519255305    2.63089909942111
H           1.52083863103056    0.49986289579132    3.35399068672159
H           1.89150210830176    0.24918480477627    1.87265888051463
O          -2.56483721465314   -0.47868169576053   -2.25004063996850
H          -2.78871519752696    0.31164258723280   -2.74322747551336
H          -1.59198659845742   -0.49006858993026   -2.18179281740172
O          -2.47012317816451   -0.34534867868641    0.47282420777506
H          -2.79038128223942   -0.56653909455411   -0.42019418840630
H          -1.83136417367099    0.37487916914658    0.31715216864730
O          -0.57609750224195   -2.04603586111594    1.05408797973652
H          -0.52622100893340   -2.64501616096715    0.27887305319352
H           0.42750869201960   -1.11880206326381    0.71005828742704
H          -1.40821364997280   -1.50779147236576    0.93158613023835
N           1.37593899684317    2.72739752694737    0.85571486754815
H           1.47772295614507    3.73458533796619    0.91373879838173
H           1.72202133601296    2.22411704424682    1.70299044947401
H           0.39224476504142    2.39339421077242    0.64476782776190
H           1.82825897661828    2.28216869087848   -0.01646075931001
