    26
        -50.45019482  Gyration_radius:  2.45245658484 Dipole_moment: 4.160
 S           1.52519298428564   -0.97672692907900    0.80958770324912
O           2.28081195118774   -0.84350908560381    2.00426336606414
O           1.19804775730580    0.23953583549272    0.10976894357122
O           0.21663899128726   -1.73292521276113    1.14878064927685
O           2.24060929122292   -1.91564649571198   -0.18772021880103
H           2.11388491958703   -1.53744632776092   -1.11315882522578
H          -0.54758578994599   -1.45161364733191    0.55943101667865
O          -1.81401460595238   -0.96601511090449   -0.22313548146535
H          -2.57869158711628   -1.47201151755785    0.05706597331324
O           1.84660159699333   -0.69930118786296   -2.42309349683107
H           2.18870201560032    0.15587971074670   -2.14775933054090
H           0.88172773402128   -0.56359068527133   -2.53745936990656
O          -0.29734011179822    2.16520313761717   -1.06622430507738
H           0.37073909836869    1.62898001316552   -0.60995335528128
H          -0.55697121410555    1.63921184067908   -1.83131990023607
O          -0.81917495169311   -0.22780491960187   -2.62513363219565
H          -1.20468260618969   -0.52738281016064   -1.77735542834364
H          -1.30943643533453   -0.65860444908936   -3.32709297822850
O          -1.89246447323918    1.27765035018466    0.91075200455323
H          -1.24851145876215    1.17903741522857    1.65732046241739
H          -1.42527283908690    1.81944698165402    0.23807463548439
H          -1.89742465434904   -0.03601874265911    0.24207198149945
N          -0.02482869571629    0.91211307497114    2.84684775832537
H           0.74210545047414    0.37139964886700    2.45919244419615
H          -0.34768737731307    0.42176736558601    3.67254733218866
H           0.35902500026495    1.79837172716675    3.15370202131265
