    26
        -50.47294879  Gyration_radius:  2.44406098975 Dipole_moment: 1.557
 S          -0.66137947495476    0.17104532220229   -1.91416889928064
O           0.43060861871225   -0.78764070209309   -1.98317619341778
O          -0.25756334629704    1.42433734116638   -1.30036282548320
O          -1.85427583670546   -0.40004679505787   -1.32195669123052
O          -1.03956505325721    0.53248826066825   -3.40890006478240
H          -1.44320902426820   -0.27904316319531   -3.69519879244223
H          -1.80800593708598   -0.99489727832557    0.16341532683658
O          -1.72941210536177   -1.42181145247628    1.05600364274857
H          -2.61461028867205   -1.70746643200835    1.28665940500499
O           2.28541044720739    0.91185075656918   -0.98070106121133
H           2.13295202505469    0.23979151489278    0.48362162710731
H           2.20890133603301    0.14837778173725   -1.56829396813892
O           0.67853871757214   -2.38223351454755    0.12305218558218
H          -0.20380852177028   -2.31866477530242    0.52357286939344
H           0.59616235034569   -1.92547936087697   -0.74249420111799
O          -1.27560760727139    2.47820491663959    0.90258246696185
H          -0.96873969138149    3.38583705786328    0.88225557169910
H          -1.00716391064181    2.08334624620963    0.04642007330066
O          -0.34247627647575    0.49374067363258    2.43748527699326
H          -0.68720152248720    1.30066935944959    1.99896681472896
H          -0.91482206241922   -0.22241417512464    2.10476461205786
H           1.40742508167546    1.33618548816454   -1.08692408367511
N           1.86676592550126   -0.35968964644325    1.31411638243928
H           1.50534502963217   -1.27837594354338    0.91195136857155
H           1.04031320662504    0.07815067234422    1.83403916645272
H           2.65541795069622   -0.50626214254903    1.93326999089555
