    26
        -50.45019490  Gyration_radius:  2.45238377285 Dipole_moment: 4.163
 S           0.17765235428895   -0.72616253591841   -1.83761730167631
O           1.02413388219008   -0.45774196648470   -2.94545742153555
O          -0.31993622963515    0.41369148793510   -1.11007914666527
O           0.94142527171249   -1.65526809690692   -0.86159508860882
O          -1.03858840253292   -1.57482529574978   -2.27182549848417
H          -1.84483534545551   -1.23917624588032   -1.76887687346399
H           0.67388511955781   -1.50198990583060    0.09514552190064
O           0.41256663730097   -1.22380601212430    1.61406521434606
H           0.93241116622644   -1.82883353447366    2.14601080466766
O          -2.16246772401241   -0.40437017878898    1.66610603444382
H          -2.65488850190002   -0.91749194748674    2.30867842857415
H          -1.24259843980002   -0.73726235495606    1.67403342381721
O          -2.94469608399933   -0.47769737530725   -0.93241700319257
H          -2.70156031343027   -0.48676576332731    0.01798504047695
H          -2.78240264227601    0.42398189511285   -1.22370363700596
O          -0.82088070795423    2.07404636658903    0.96821267456453
H          -0.65163682286134    1.65104836567357    0.11118463984632
H          -1.45779148830659    1.49856328334992    1.40709982476506
O           1.56833712088809    1.01004361186393    1.60096967577461
H           0.90524787754919   -0.30532422716181    1.65746547916879
H           2.03065582280926    1.02294483779791    0.72471783019531
H           0.79005705732185    1.59842670348181    1.48990155842237
N           2.69316527932389    0.96286599058418   -0.86952167387038
H           2.87223697932382    1.90164970798574   -1.20654365241875
H           2.03813864830965    0.53243922299143   -1.51487468033692
H           3.56236946536230    0.44701393704707   -0.93906418373912
