    26
        -50.44892240  Gyration_radius:  2.60969008211 Dipole_moment: 7.145
 S           1.21199218023795    0.20226144710779   -0.89685828484996
O           1.34329371752599    0.62382677427108    0.47562202109758
O           0.11429583954409    0.77052983305186   -1.61358405050378
O           1.11052840093855   -1.34760447258785   -0.92145492267934
O           2.52030051148180    0.44338487601896   -1.64214951797301
H           3.25477984046245    0.17881157840113   -0.96023406567713
H           0.22160748549385   -1.64546277843216   -0.53837349353416
O          -1.11141901315866   -1.98141794559530    0.17575758435102
H          -1.11111140904716   -2.86731105572674    0.54353654317475
O          -2.55898510635587    1.54109808998132    1.85117576323467
H          -3.48794715072939    1.35156387951582    1.98883954944091
H          -2.46835755803740    1.78737027217630    0.89912450278319
O          -2.35314031888031   -0.55034538185294   -1.94296222998746
H          -1.49736851134489   -0.16969897553016   -2.18096798189972
H          -2.16237183832056   -1.17582027057225   -1.23322101754063
O          -2.32551009826571    1.93588449131699   -0.76916403953549
H          -2.68171147565375    1.13621848997834   -1.19696582206990
H          -1.39128080048477    1.92575902007739   -1.01164450113985
O          -0.66460397248114   -0.31822540011573    2.04692673677633
H          -1.37083815692692    0.36862809128367    2.08749685569360
H          -1.02354724871064   -1.34125052241340    0.96617401537107
H           0.10071969051150    0.12814419162364    1.64574933436357
N           4.01725059591591   -0.20204505026913    0.31535506809492
H           4.20651468892466   -1.18856377344133    0.42980309121227
H           3.25823154871131    0.06968198128185    0.93453260805943
H           4.84867816863539    0.32458263044898    0.54748624372594
