    26
        -50.45019472  Gyration_radius:  2.45249102092 Dipole_moment: 4.160
 S           0.23873683475110    0.56069585097823   -1.88818145638442
O          -0.68303809943187   -0.11616125879517   -1.01165613793065
O           0.57794216308208   -0.10401950629995   -3.09606674807047
O           1.54842938611018    0.85435273310390   -1.11517815104561
O          -0.33508202685250    1.96553411201854   -2.18031346198231
H          -1.08645239878638    2.13341960296808   -1.53019203750467
H           1.41086624099923    0.84547102167316   -0.11937104468673
O           1.30468276202253    0.71070326332698    1.43693503755890
H           2.15830123759143    0.89126519121571    1.83439859959936
O          -2.25893510336754    2.10778240995261   -0.47417276068974
H          -2.69217801960409    1.28702778298013   -0.72498453420742
H          -1.89446557176138    1.94090572660893    0.42122781014684
O          -1.22465158269274    1.50450373787813    1.96216086977867
H          -0.29370179834604    1.25281629257876    1.79769702313296
H          -1.21908798422894    2.18268366986579    2.63940297043478
O          -1.67121195428725   -1.26896878021085    1.22916958713026
H          -1.44244871562365   -0.98728378326616    0.32894560298401
H          -1.78201600681554   -0.44927122471590    1.72442996571016
O           0.96522294809938   -1.78089814221258    1.39262780993093
H           1.18744470160722   -0.32561730189369    1.46379509166241
H          -0.01454478064721   -1.81557129850069    1.44957075787895
H           1.17942756793879   -2.02400448095227    0.45626125568262
N           1.47197354862786   -2.29599209143684   -1.22420348719843
H           1.07964463706382   -1.54506707259315   -1.78369958041015
H           1.02281839214846   -3.15510979489401   -1.51940408818561
H           2.45232362240049   -2.36919664936681   -1.46919890333168
