    26
        -50.47676523  Gyration_radius:  2.44764625199 Dipole_moment: 3.270
 S          -0.41197462434153    1.12255596510921    0.83469140174836
O          -0.15085488495415    1.34876475082378   -0.58273575148150
O           0.71356638056014    0.49577498541089    1.49656996485092
O          -1.65511071434933    0.36737105602458    1.01726464281857
O          -0.60553302668923    2.51566967237550    1.51021322373156
H          -1.46717398608031    2.81746804851440    1.16270236076512
H          -1.51963526168393   -1.13581608401044    0.44986794018341
O          -1.39246281231224   -2.03688275386560    0.05760746596104
H          -2.19472588820398   -2.52555024631472    0.24830978659197
O          -3.09786679299062    2.52363344527145    0.62360825294883
H          -3.77921560201001    2.60279061425531    1.29512045447821
H          -2.78102356865112    1.59858512333002    0.65391534544190
O           1.18286393021892   -2.08404954789450    1.03310768031964
H           0.28524839467007   -2.33853219251330    0.76102306210019
H           1.07340789240672   -1.18047491906522    1.39737325555288
O           2.47260466509370    1.28559648687073   -0.38253441527733
H           1.57011914006815    1.53212698444973   -0.67213273269553
H           2.34214805273138    1.13372001736069    0.56463925971517
O          -0.25063189419643   -0.80664583823233   -2.13685582508257
H          -0.31567830884770    0.07721969527063   -1.71540339398093
H           1.26897850301751   -1.11229248130431   -1.77341907901972
H          -0.77134671994518   -1.38964584298209   -1.56046681490121
N           2.18290085835938   -1.20431455750307   -1.23247230816067
H           2.47617528513464   -0.21774653229397   -0.97303977531023
H           2.89910392208417   -1.69469184958207   -1.75472387300977
H           1.92611707090342   -1.69463397952213   -0.32223012827911
