    26
        -50.46081185  Gyration_radius:  2.48370817488 Dipole_moment: 6.477
 S          -0.64878695164515    0.86830329891303    0.08800543652774
O           0.10260695446111    1.38296669499100    1.21291629605204
O           0.34601770792532    0.60927058535324   -1.08548714818316
O          -1.26792275163054   -0.43569294636790    0.38327119739107
O          -1.63142823219586    1.79338868220733   -0.45626323258314
O           2.79609008203140    1.46587133632459    1.15688632465765
H           1.83091041845128    1.52537330014536    1.29397518338050
H           3.06207521467868    2.29129765282823    0.74961701999104
O           0.34585458922928   -0.16589083334668    3.42409441070508
H          -0.48895529766428   -0.13024236755081    3.89303149648721
H           0.27295652703955    0.47241523640990    2.69026734455957
O           0.65809464260901   -1.99541981671416    1.42504727055669
H          -0.13680595344693   -1.57411961346332    1.04873511939354
H           0.75769150112556   -1.56550961769446    2.29350484849045
O          -0.59151114679958   -0.52753837646780   -3.34677997387722
H          -0.11651245925622   -0.00436658720713   -2.67083454586765
H          -0.07917784710264   -1.32918130430631   -3.46965280564694
O           2.23899649947127   -0.74747350816362   -0.23655561461738
H           1.17413968576675    0.02098765441071   -0.74745592327752
H           2.69264539562140   -0.06813559651598    0.30650680789950
H           1.77154458726818   -1.34805024821586    0.40992145893295
N          -2.66741422406817   -0.13063425677671   -1.71225512168623
H          -3.65585762435713   -0.28705706303868   -1.87555825653466
H          -2.27893591256827   -0.61416841911161   -0.85259279110945
H          -2.06604252086964   -0.37570602943129   -2.53031989608547
H          -2.42027288407513    0.86931215278983   -1.39202488555859
