    26
        -50.47063148  Gyration_radius:  2.4245233345 Dipole_moment: 5.349
 S           1.20088799772584    0.62014517527006   -1.52859204255118
O          -0.02592659605517    0.55414934241727   -2.30555506348695
O           1.69044091689008   -0.65527630642354   -1.08002293812301
O           1.07090309798795    1.58222332418106   -0.42727529567995
O           2.28829573164357    1.22208699707625   -2.50927489670178
H           1.75034876690028    1.76264611218980   -3.07745905680225
H           1.08958084174251    1.16455876323513    1.13227076284990
O           0.97121959829675    0.94569222013098    2.09283697194294
H           1.46295103424351    1.61096522107836    2.57620091747410
O          -1.27821456176217   -2.08178575827159    0.80820949172172
H          -1.57576787060401   -0.70471716020323    1.23522807622750
H          -1.22679135345492   -2.11064980381290   -0.17602352470630
O          -0.68610572719302   -1.96765028317676   -1.78551444234620
H           0.20388055692325   -2.32931067112928   -1.73948179361470
H          -0.55055224201385   -1.04053654933917   -2.06037298230290
O          -1.52751313967334    1.93095069835859   -0.55512787728120
H          -0.55286473235588    2.01502088222839   -0.46861334374353
H          -1.61725475892896    1.45961185912682   -1.39326874795685
O           1.29667553154680   -1.75849402707050    1.34527388803449
H           1.34294347205571   -0.95235525590817    1.87495891032515
H          -0.33702908948111   -2.16463837606787    1.09861792231335
H           1.56132123862244   -1.47817482317250    0.44892666898250
N          -1.64693654735571    0.34432703856258    1.56394494301287
H          -1.76017627127151    0.96911955890004    0.71682057914480
H          -0.73600154453103    0.58994675101085    1.99263816396943
H          -2.40831433990033    0.47214507080888    2.22065471929963
