    26
        -50.47676529  Gyration_radius:  2.44748739895 Dipole_moment: 3.270
 S           1.37319319561375    0.36058770347187    0.33344128985782
O           1.22012857977680    0.55939293659951   -1.09311168014360
O           0.85487746348802   -0.93483837483551    0.75970574959460
O           0.76562690644407    1.44264531589417    1.11374358859954
O           2.90650018794914    0.37693939491523    0.62235571229847
H           2.95210286865134    0.41849935686630    1.59719898350880
H          -0.80930767041810    1.58405473957768    0.79889524977763
O          -1.77815577531597    1.60646224616969    0.59191298902282
H          -2.13370352427568    2.36109170238536    1.06408793713961
O          -1.21300920412132    1.06782616623635   -2.04902170276198
H          -0.25553460059614    1.01468164228680   -1.84540861312719
H          -1.60779566129029    1.42123477310713   -1.23424200554990
O           1.01239620962490   -2.07409111889947   -1.60761028737088
H           1.35879254643802   -1.22858233989286   -1.92781822964274
H           1.03877972102227   -1.94637122875527   -0.63709857123041
O           2.35519000265715    0.95499142129081    3.14443785865344
H           1.58980673381284    1.21117295779278    2.59174047084572
H           2.73690574515420    1.76948330292987    3.47964889992690
O          -1.79374316540874   -1.14289005602369    0.86841776771172
H          -1.80737100846318   -1.50293840843607   -0.68262720472818
H          -0.82209102216157   -1.16659348717831    1.00444211160627
H          -2.02229870924520   -0.20000059674627    0.91208880080755
N          -1.57206628446145   -1.51507545460687   -1.72217806495793
H          -0.57987610788219   -1.88444020968181   -1.79895248602890
H          -1.53954168189280   -0.49227921476566   -2.01822206437196
H          -2.22980575509775   -2.06096318970163   -2.26582647942128
