    26
        -50.45459367  Gyration_radius:  2.45330827587 Dipole_moment: 4.890
 S           0.03178479825633    0.16191531483692    1.42128041309619
O           1.16466331844169    0.70313208148436    0.70103972629850
O           0.28931438745372   -1.03526123777304    2.15684930806168
O          -1.09440157322098   -0.09566707074291    0.39753422160664
O          -0.55383488261825    1.22664250449907    2.34175737792703
H          -0.48458270974602    2.10309050753699    1.80715486143838
H          -0.66523171995707   -0.08373842226261   -0.55573580525045
O           0.16660910608198   -0.04880882833227   -1.75896142874572
H           0.93627272040172    0.39280294955061   -1.37855382864268
O          -0.77851966689138   -3.00557780155236    0.60484092596625
H          -1.67318774689103   -2.68389080057791    0.47909008824141
H          -0.38223800444064   -2.42973619398725    1.28045158419164
O          -0.16273800493565    3.13002839414699    0.74428553915666
H           0.70469398665181    2.77645676483397    0.51584764310931
H          -0.75351910501915    2.94085684878707   -0.04067436151019
O           2.60059969135519   -1.61929191369223    0.50167922976432
H           2.27668434969354   -0.70991432014124    0.58796169881209
H           2.31982740006233   -2.06306018291318    1.30640591291293
O           0.92113065586956   -2.47713836926330   -1.45670725643666
H           1.70783187110272   -2.31254883026419   -0.90025843743891
H           0.26453450284890   -2.85773438373550   -0.84164623910773
H           0.43314565842767   -1.02890236484399   -1.80746685324998
N          -1.66305474096103    2.37514277324886   -1.33671605700991
H          -2.08996649118053    3.06942608792141   -1.93716992478815
H          -2.40101982194765    1.82345520876836   -0.91610789898695
H          -1.11479798893879    1.74832129437258   -1.91618042935408
