    26
        -50.45019477  Gyration_radius:  2.45253821955 Dipole_moment: 4.161
 S           0.58663727464336   -0.87102219763785   -1.68399170792214
O           1.84276514965623   -1.15248103103889   -2.28294107450424
O           0.43711173866429    0.42234260009399   -1.06685884355755
O           0.29770166923016   -1.97019811122217   -0.63157571758305
O          -0.55747288965708   -1.03831118497527   -2.70925550665698
H          -1.23117465296635   -0.30791788259056   -2.54170510426226
H          -0.24856006383705   -1.62426153801367    0.13812766848580
O          -0.97420440406103   -1.12700748824841    1.43364556432705
H          -1.09865582678053   -1.86332425249796    2.03500692883096
O          -0.05207348362962    2.28054097283122    0.83961887164015
H          -1.00429886395839    2.13545206934945    0.88083186889529
H           0.24683241319970    1.75926627179914    0.07738681193575
O          -2.56661412845176    0.86261364357248    0.53403457265980
H          -2.02884330591563    0.11913695500960    0.87339847269744
H          -3.46709174222177    0.71871518056979    0.82923346452274
O          -2.07007419782428    0.96476685663345   -2.13295620645621
H          -2.30170012698005    0.91723141736523   -1.18084133060076
H          -1.38840248200993    1.64010394823813   -2.19115927997506
O           0.98336669334086    0.23018122629867    2.24095867577472
H           0.72026685824514    1.11513361870610    1.90634621218008
H          -0.17716135126383   -0.57355484538876    1.81658101665619
H           1.72328657727724   -0.06109753998964    1.64979781023693
N           2.89349604629698   -0.57248470308348    0.48682660626865
H           2.46777210421918   -0.67903223774341   -0.42871699945169
H           3.34536547160394   -1.45148163850461    0.70959853694423
H           3.62172552316262    0.12668991046483    0.39860870891963
