    26
        -50.47676524  Gyration_radius:  2.44734562425 Dipole_moment: 3.272
 S          -0.93646534769871    0.96258427138001    0.56961415645514
O          -1.36128421931606   -0.42120250911202    0.38828084952220
O          -0.43941418358591    1.53975217281167   -0.66237253487908
O           0.03428625651737    1.06610162108900    1.66315095578851
O          -2.19170661573378    1.79555141673747    0.97590148625039
H          -2.38127146314392    1.49003957392390    1.88417864865096
H           1.41918145865421    0.32708032427855    1.29645389267274
O           2.23622518177032   -0.16752975330279    1.03209387483727
H           2.87257265910478   -0.02510712352229    1.73465464734568
O          -1.71810206498047   -0.24939434641651   -2.21385546284329
H          -1.84209693548260   -0.50328438131524   -1.27632593295861
H          -1.43947429411286    0.67440887255955   -2.13332419511359
O           1.95657006369005    0.77709885845954   -1.53936255601403
H           2.32592132123077    0.48401204031623   -0.68944906630528
H           1.13107604359343    1.24421175463108   -1.29138200661416
O          -1.87725995136845    0.93144201626232    3.45625874384825
H          -1.02169991353330    0.85333308865603    2.98841602400025
H          -1.76436038158549    1.61241959559429    4.12336162850623
O           0.59063735333406   -2.21384179254464    0.17091460956583
H           0.67558866337605   -1.89952944837172   -1.38782579229382
H           1.31449229944735   -1.70577429650118    0.57217081788650
H          -0.21609279214910   -1.69189546301429    0.37059994808879
N           0.67299995677503   -1.37969421136555   -2.31837853625036
H           1.29854955058251   -0.53001425431291   -2.17113219996355
H          -0.31320159902807   -1.01030490785987   -2.45090970466223
H           0.97432894360892   -1.96046310906087   -3.09173230550732
