    26
        -50.45662061  Gyration_radius:  2.60091857762 Dipole_moment: 5.228
 S           1.20676418173525    0.47489466126452   -0.58763609534637
O           1.03705443220030    1.86630225911395   -0.27163327615127
O           0.01155334551116   -0.13429205738129   -1.16346359842351
O           1.49611333932461   -0.31610615758523    0.75478191061139
O           2.40289501711546    0.18881397117212   -1.38589821349704
H           2.61185523656140   -1.16853631606582   -1.13506590401355
H           0.64284818960166   -0.57533866412993    1.19442244875630
O          -0.70610078830364   -1.19371504052539    1.83645245697737
H          -0.88442676687651   -0.82412315161284    2.70248853416867
O          -0.96061600732037    3.55589242315104   -0.56499448597465
H          -0.23774892164781    2.89046774004193   -0.54092009427792
H          -0.56025092553196    4.37106707438975   -0.25737659465234
O           0.11044589430822   -2.65457749499220   -0.51252881904918
H          -0.07770032127100   -1.76330990472688   -0.89728661770650
H          -0.22411195533722   -2.59857256762861    0.39095529641480
O          -2.80029341942037    2.40008197061662    0.98266353932070
H          -3.64635202383661    2.70371181927734    0.64967377804676
H          -2.11670201501877    2.85791253114734    0.43933436921197
O          -2.33157178214139   -0.12110402869898    0.16683374556995
H          -1.63776741192729   -0.01025899406605   -0.50777841987505
H          -1.42602992003098   -0.82650284872916    1.22581469611575
H          -2.54285442584846    0.78085254761865    0.49419867897658
N           2.67323166344759   -2.24932255311633   -0.83176495103685
H           1.65346207071660   -2.54549869076966   -0.66935707871983
H           3.19088345364242   -2.29785910040521    0.04043760202837
H           3.11541985035520   -2.81087942735354   -1.55235292749795
