    26
        -50.45514396  Gyration_radius:  2.42743251829 Dipole_moment: 4.702
 S           1.12721234324723    1.14068976561170   -0.22649840119284
O           1.04361567934262    0.06955194246119    0.74805693704647
O           0.90402048175201    2.44475531999928    0.30705435281168
O           0.08527258114552    0.84569219099103   -1.34251595089441
O           2.43764027770310    1.04794290114784   -0.97125934337954
H           2.61376272222080    0.01516952891874   -1.07061522593722
H          -0.84880245485714    0.90130382702972   -0.96187347274029
O          -2.23078095546023    1.00074418108352   -0.25715467098792
H          -2.84525581976979    1.54471210570070   -0.75370524531160
O          -1.12188149836154   -1.54857102328307    0.40623131168897
H          -1.79543259354657   -0.88799311051121    0.20822193154351
H          -0.31033143761137   -1.04505943196079    0.58542808370359
O          -0.46117576164848    0.13208428258659    3.03219538383417
H           0.25959519816416    0.10846891932347    2.38211721256446
H          -0.98372692145547   -0.65872580267308    2.87165973266450
O           2.64004546875076   -1.43127344338326   -1.01775896774187
H           2.48643129076583   -1.58213832981108   -0.07968446617118
H           1.79110723185980   -1.74293084501924   -1.48414442504104
O          -1.38840152189610    2.32377180446459    1.76058281758189
H          -1.14614782738159    1.64712529890092    2.42707711657102
H          -0.54577597786514    2.61983149859709    1.37531976826527
H          -1.99714332886112    1.53206097474370    0.57780091516123
N           0.32937655912977   -2.09897490486975   -2.05549309128828
H           0.20370015597888   -2.92422734681401   -2.62673637773789
H           0.04151913678818   -1.28763452988771   -2.58855323341993
H          -0.28844302811599   -2.16637577333346   -1.24575268160937
