    26
        -50.45662071  Gyration_radius:  2.60075896798 Dipole_moment: 5.226
 S           1.32271598971738    0.49673044860880   -0.16996027544165
O           0.65070516279514   -0.13074393185192    0.96402289965418
O           0.98460393218882    1.88381229704178   -0.33201087718567
O           0.83961847196308   -0.29423433738893   -1.45534863397647
O           2.76514894484426    0.23394874799521   -0.16213423454281
H           2.82347932343877   -1.12077833083706   -0.49452347196702
H          -0.11072873953946   -0.56884647219123   -1.35556015454435
O          -1.58101934060272   -1.21075933237020   -1.15496442948041
H          -2.21112213863012   -0.84583220475189   -1.77805541715051
O          -0.54620774084225    3.54069439583646    1.02531377138881
H          -0.39350341398370    4.36162952859668    0.55387891875235
H           0.05376448671827    2.88723804762799    0.60228098830491
O          -2.91559536198304    2.35039109287346    0.73425465291725
H          -2.05307341167393    2.82095426945608    0.81636730326655
H          -3.44437734102247    2.64049825109609    1.47932187359567
O           0.41502070217534   -2.65108267880771    0.34951785737510
H          -0.36172601300578   -2.60363732153974   -0.22123430677064
H           0.45508050393914   -1.76186619057695    0.78009681161673
O          -2.03763295843298   -0.16057467164209    1.14049833805252
H          -1.85245024163497   -0.85400330413655   -0.24667249815602
H          -1.08903140651604   -0.03634122703062    1.32346143136172
H          -2.40759808966031    0.73699660609307    0.98917235893298
N           2.72547078353745   -2.20151450237664   -0.78818698112379
H           2.67996667121105   -2.24467737731510   -1.80166216227214
H           1.78884264249718   -2.51525597788301   -0.36595129338576
H           3.49964860248753   -2.75274582452419   -0.43192247924337
