    26
        -50.47676515  Gyration_radius:  2.44770047666 Dipole_moment: 3.271
 S          -0.98849841784486    1.00405649599042    0.37493148297493
O          -1.57901852716847    0.20306547789591   -0.67754039194156
O           0.36505876296917    1.43120921998039    0.03762273742965
O          -1.00628804078365    0.31905823733098    1.67087724746107
O          -1.87130434297861    2.28366110438348    0.50802874824930
H          -1.54895480365237    2.69583851689844    1.33293034854039
H          -0.21042302444585   -1.08169284190428    1.60778467098788
O           0.31599847124789   -1.91683485745279    1.52177734158027
H           0.23140955572224   -2.37211453296718    2.36108434250275
O          -0.91758517753337    2.60601378476681    2.95440818787216
H          -0.80894930073816    1.66792776443243    2.69898081775121
H          -1.57092934028788    2.62556774834441    3.65734378443324
O           0.08901601495846    1.15169002122817   -2.56472998553887
H           0.36717558726242    1.50508125107186   -1.69480450301413
H          -0.81616242615771    0.86176763612800   -2.38029888238999
O          -0.72556022945641   -2.29882076219716   -0.99862295135849
H          -1.22583302795737   -1.45836323651894   -0.93185764360945
H          -0.38596198777660   -2.44272976749110   -0.09939080769336
O           2.24637437506425   -0.44055930492532    0.20666816849556
H           1.69127682386593    0.36827002477233    0.23350730391567
H           1.78891101012763   -1.06867495785680    0.78924310052558
H           1.88515734287016   -0.90652940752534   -1.27258514837333
N           1.33509126546850   -1.14691103841147   -2.15336515597920
H           0.91143259130563   -0.23659062886651   -2.49782213699389
H           0.52418578771143   -1.75481913390603   -1.82503713450424
H           1.90438106821628   -1.59856681320918   -2.85913355132661
