    26
        -50.47676527  Gyration_radius:  2.44750279183 Dipole_moment: 3.266
 S           0.40970219587875   -0.40636486285463   -1.33912242599719
O           1.56442117046356   -0.56383935629134   -0.47900817181752
O          -0.23191843915438    0.89072840408486   -1.15445600245971
O          -0.56086716468628   -1.49185659777752   -1.17069994623799
O           0.93653501837064   -0.47096815483558   -2.80638219064326
H           0.11934202970783   -0.53892811493911   -3.33715092249133
H          -1.08440848894428   -1.58205755333832    0.35179870493904
O          -1.39577707809892   -1.57263178852569    1.29248605994226
H          -1.97769032499521   -2.32838452956887    1.38770650614541
O           1.88021470220789    2.08678210987587   -0.13703848034728
H           2.33925716700084    1.24086702405639   -0.24281076497229
H           1.05735493908981    1.93297323872609   -0.64508682253445
O           1.16350069701884   -0.98076660591357    2.12057096177391
H           0.26419764853619   -1.34466304466867    2.06246690465109
H           1.47147625499353   -0.95898950582271    1.19015950146822
O          -1.51228471166599   -1.09984273369604   -3.58506777536822
H          -1.60004425281731   -1.93273581676727   -4.05422498734253
H          -1.42049161635611   -1.32102514971626   -2.63660545636064
O          -1.66645981940596    1.16772780986003    1.06710116343926
H          -1.29297435609386    1.16174651906434    0.15956489033262
H          -1.81099125301887    0.23043078844497    1.27646098186240
H          -0.33843938040849    1.56844592518432    1.84858117875927
N           0.67732951858802    1.60161179314258    2.17019214092556
H           0.95829310728285    0.58652125672546    2.32936143306792
H           0.80891673459260    2.17965777624505    2.99159285866049
H           1.24180571190108    1.94556116931175    1.33961065060259
