    26
        -50.45651724  Gyration_radius:  2.48757119374 Dipole_moment: 4.652
 S           0.21814007065524   -0.89877758591965   -1.59211662883451
O          -0.74069386264248   -1.00016237712909   -0.47467512586337
O           0.62719856464733   -2.17731079127352   -2.08791076430968
O           1.51872702608409   -0.22992808462904   -1.01058947244802
O          -0.30700020370667    0.03059518821185   -2.59606510096216
H          -1.57881923160104    0.65332365078202   -2.08260164123561
H           1.31858416048493    0.68010471869655   -0.70249635320673
O           1.03745337161116    2.06649527673533    0.25153966790443
H           1.89414412821657    2.28748545638823    0.61989401209483
O          -1.71703304115187    2.56706289634965    0.45787521084674
H          -1.56045623946800    1.95136142855146    1.18889543271072
H          -0.83282951738072    2.84564430302656    0.18185084066793
O           1.81192420187076   -2.78749970086138    0.22361836846359
H           2.71798719317952   -2.67476622217958   -0.07228712366148
H           1.26961632774638   -2.63643773103718   -0.57555275048789
O           1.51198604719315   -1.33608833665004    2.48034915023819
H           1.27549407931430   -2.01181967821110    3.11760193248101
H           1.61012935667585   -1.81094529236107    1.62397941472674
O          -0.34559301285111    0.40745719838106    1.69984277925954
H          -0.55752922492464   -0.17367402890076    0.93229507633685
H           0.31652517320744   -0.12986098693233    2.18664749649646
H           0.58328399201291    1.47503222095651    0.91959751209079
N          -2.38481221469211    0.73925724031781   -1.36327884693395
H          -3.30802442212058    0.69468440718573   -1.77878820606721
H          -2.25105138129899    1.57877082099750   -0.74080100429635
H          -2.12735136099968   -0.11000399054741   -0.80682387600873
