    26
        -50.45508587  Gyration_radius:  2.52372452025 Dipole_moment: 3.601
 S           1.24249789162174    0.66097312180008   -0.57299380655857
O           1.44652624907100   -0.16984971663014    0.62899000423532
O           0.13430740905324    1.57354781646511   -0.39453315724260
O           1.08038952762301   -0.18896460577384   -1.74682637926946
O           2.52984131932181    1.51285849457176   -0.75625649814556
H           3.22877942258951    0.81780623708958   -0.87164151025819
H          -0.40899307082867   -0.64211920946833   -1.53802398070971
O          -1.34473832721678   -0.95886539010178   -1.40942334932708
H          -1.57349953888230   -1.42459081664846   -2.21635019995298
O          -1.37908624145300    1.88791984113065    1.68405366017725
H          -0.72865285181529    2.01222745908563    0.95129728258826
H          -2.17644613601602    1.57662802515620    1.20919022460782
O          -2.05629818550676   -1.67896025140567    1.09470914805737
H          -2.86452560173704   -1.15560465175443    1.10229628264021
H          -1.71646095816157   -1.60712940995289    0.18028016119073
O          -3.05642764400459    0.80652454739904   -0.15051649248447
H          -3.29022613467059    1.56075853377367   -0.69378607530132
H          -2.38618036032277    0.31161318352238   -0.65971230349876
O          -0.31766513311143   -0.26670811824740    2.35730211489423
H          -0.97743676379275   -0.93237246943442    1.95890473333056
H           0.49369820709105   -0.24044325188793    1.67027991389935
H          -0.77719030532817    0.68393754005736    2.21966982626349
N           3.76984293294701   -0.77134069773426   -1.00910056522232
H           2.96721500433524   -1.00245481638112   -1.58710961767469
H           3.57204351450668   -1.12165002227743   -0.07955678505864
H           4.58868576471141   -1.24374137235756   -1.37114262117577
