    26
        -50.46839071  Gyration_radius:  2.4964291768 Dipole_moment: 7.374
 S           0.86270760031729   -0.63672993583675    0.02135685602040
O           1.78387921588141   -0.34301264100116    1.11040473632955
O          -0.34215114597134   -1.30314428722226    0.51097187996021
O           0.49398984392866    0.59722397924643   -0.69159841203323
O           1.59423072761902   -1.55262364536703   -0.96295176649714
O          -1.94493193448141   -0.67425908084095   -1.49295961660008
H          -1.71205572038213    0.25281533604660   -1.59322262952844
H          -1.46623771012277   -0.97271429662649   -0.69308714049165
O          -0.42848459519498    2.44691010127093    0.89720331969900
H          -0.12735486060626    1.75854997943888    0.25111548248065
H          -0.05139806187072    3.27347808869334    0.59112602112839
O          -1.51102760008362   -1.04299727845838    2.83848389728958
H          -1.08676313241130   -1.31383475883858    1.98994370961990
H          -2.43435015476705   -0.89012505097600    2.62776922795607
O           1.13144049466122    0.71551417957712   -3.27928922331992
H           2.08646986017791    0.64669650241682   -3.32403362022327
H           0.90856647340972    0.77802793698163   -2.32757978122199
O           0.03784631759507   -1.73386281951567   -2.95045455637440
H           0.35212913777171   -0.91685189942436   -3.38675381481746
H           0.97315815842654   -1.72328483554235   -1.76380548915381
H          -0.83520296329766   -1.50085735562148   -2.56281426412667
N           0.34515107184137    0.84568161858607    2.87562898546285
H          -0.00828142207970    1.63854412293798    2.28998968677094
H           0.78288753301372    1.15770748323234    3.73535056869545
H          -0.44361858414133    0.16944332118412    3.05319612311787
H           1.03940145077199    0.32370522565965    2.23600980985812
