    26
        -50.46839074  Gyration_radius:  2.4965668533 Dipole_moment: 7.374
 S          -0.64452520881131   -0.59998123818381    0.61088976504778
O          -1.84822236268228    0.09141050149956    1.05160765231822
O          -0.72308793329850   -0.95143961342445   -0.80533534229640
O           0.54675259403404    0.23038327165744    0.85217504874577
O          -0.51374069050915   -1.87245860305925    1.45117350277739
O           1.86901110418043   -1.16927204221520   -1.26853935507463
H           0.89202122615969   -1.11943679115794   -1.23737013371429
H           2.17491823835543   -0.38060819699367   -0.81224341241785
O          -1.97997564588247    0.31086755980113   -2.72352298814866
H          -1.32830342686786    0.39528255741545   -3.42247098902080
H          -1.58439134893669   -0.30859499681312   -2.06543485644246
O           0.35071201547493    2.61004769404228   -0.19439386766571
H           0.48757714069725    1.70271757741282    0.17978408691832
H           0.72358599698346    3.21562579547536    0.44851451144810
O           2.39083777932673   -0.77914216475889    2.49454305440461
H           1.96000960367538   -0.89625314495602    3.34279260914234
H           1.74533636554181   -0.31214585799501    1.92490551934118
O           1.75268662604193   -2.81825478119921    0.83968281075721
H           1.92634872510228   -2.41077636686226   -0.03821014732759
H           2.25364884042782   -2.27407449163749    1.47963106497180
H           0.36156333980453   -2.34227835458473    1.18809943750029
N          -2.18722039231298    1.96860356983774   -0.66843787565493
H          -2.17646073540941    1.19936280964397    0.08801037053059
H          -2.21066108832695    1.46040144172438   -1.59160961928123
H          -2.97443673410953    2.59797683540994   -0.55776556435974
H          -1.26398402867168    2.45203699991037   -0.56647528250441
