    26
        -50.47294875  Gyration_radius:  2.4441722637 Dipole_moment: 1.548
 S           1.07391727558322   -0.58435006180008    1.62425331210377
O           0.94367442465939    0.85421960863574    1.46927304894808
O           1.74672014231830   -1.20315641130456    0.49263094366127
O          -0.17639080136507   -1.24326540052407    1.94480390930835
O           2.01708849188263   -0.79261545934878    2.87913053681067
H           1.92152287592095   -1.72689130905332    3.02565577720730
H          -1.33740193838113   -1.33399291269057    0.84706860818152
O          -2.00842244529001   -1.43920227848159    0.12322330745554
H          -2.76605572057367   -1.86201940042379    0.53009267978271
O           0.16029996368911   -1.97747426160194   -1.48820143628827
H           0.81041333134732   -1.83659608945141   -0.76561665812131
H          -0.70094063465053   -2.02771752414881   -1.04238649341050
O           2.26410426837514    1.13701033688200   -0.76812111300727
H           2.61507676697324    0.24103065642918   -0.67851946437122
H           0.98891616890614    0.91541757578642   -1.73910590717066
O          -1.32137418448904    2.21890790185997    1.38432156114451
H          -1.04570009944120    3.12592179138975    1.52467694776365
H          -0.52002716327234    1.66973995687577    1.51560149467819
O          -2.06366407174031    1.08994107857162   -0.92657084641417
H           1.82240351029513    1.26742954637737    0.09801551237582
H          -2.21866696863712    0.18506537014173   -0.59729830773636
H          -1.88359413238487    1.61323170871679   -0.11669842955385
N           0.13614689338514    0.54253292275711   -2.24292899133384
H           0.15232510113369   -0.51486632435174   -2.10850180398463
H           0.14487651630820    0.79577900534473   -3.22403200099992
H          -0.75524757054657    0.88591998342407   -1.76076620702689
