    26
        -50.46248700  Gyration_radius:  2.40563620399 Dipole_moment: 4.391
 S           0.98375471678106    0.76823894907852   -0.16971180506643
O           1.38630053953892   -0.10387207541252    0.93533152272127
O           0.03854443221059    1.77577017679442    0.26721391769305
O           0.43690429782516   -0.05355744120318   -1.25856324632802
O           2.23539867355745    1.50064123171163   -0.71129659995897
H           2.83879879816421    0.74793776534078   -0.95322190624716
H          -0.24930941271490   -1.26157181116485   -0.42817227966080
O          -0.65009444997424   -1.90489059748406    0.20946796778939
H           0.05360517370663   -2.07350878508111    0.84341959777253
O          -0.30485320995141    0.65767030879831    2.77740802701201
H          -0.35893521846838    1.59526133415287    2.56547588154474
H           0.42274293139876    0.32640919707226    2.19526851462444
O          -2.00333452564876    0.09642388942284   -2.31048524057304
H          -2.24591738319122   -0.82844437477700   -2.38829080503498
H          -1.05181372089877    0.10943402666657   -2.07617712925596
O          -2.51812211643460    1.42278371019671   -0.08893580409716
H          -1.59203270836395    1.75865777418142    0.00502739132883
H          -2.53339078420251    1.00758175229730   -0.98613700175471
O          -2.25350350774194   -0.40798542857278    1.54027583564816
H          -1.54707009631519    0.00686466048356    2.16887571773250
H          -2.48826923963907    0.41322080048493    0.81967617033395
H          -1.73184435160282   -1.10002447862605    1.00376140785310
N           3.30857472967987   -0.85528028581046   -1.03103060533435
H           2.73046135692849   -1.27664319098567   -1.74672188820993
H           2.87067566895840   -1.03266878416054   -0.13217439432310
H           4.22272940625554   -1.28844829308077   -1.05028321613146
