    26
        -50.45982070  Gyration_radius:  2.56304226216 Dipole_moment: 6.424
 S           0.17359040974588    0.42355131486181   -0.69712604732077
O           0.53966733092570    1.84569827331344   -0.72105588206565
O           1.28266222359205   -0.33071764605171   -1.48349115232627
O           0.22609073316699   -0.05798692145607    0.68389281056127
O          -1.10138206503368    0.16194445007594   -1.33326868823675
O          -2.28479755220017    2.14148178914715   -0.03360872741849
H          -1.85856036954016    2.87819390167282   -0.47643969814729
H          -2.01082970188095    1.35370727283171   -0.54631877334675
O          -0.13999071099736   -3.83651164496577   -0.70671156437282
H           0.24450290466812   -4.70459999986635   -0.83688923884450
H           0.47909231155368   -3.34173459673021   -0.12304128239547
O           1.64655486798474   -2.29408052403955    0.57398664962407
H           2.23698618822846   -2.01913657395418   -0.13315951021715
H           1.09160042512295   -1.50607130586057    0.75047102545192
O          -0.22639215410003   -1.99654617278970   -2.65244401616981
H           0.79128294613327   -1.02509118940664   -2.04210555185330
H          -0.28135767917162   -2.74928398046864   -2.02001442548138
H          -0.94441685776833   -1.39197333344696   -2.40804594790760
O          -1.29999899097647    1.36943590966921    2.32518667578591
H          -1.89693179735679    1.70727683390419    1.62211715898709
H          -0.90795001667054    0.56919387570857    1.92283238739859
H          -0.05205101996187    2.17553317329098    2.10447107290313
N           0.87339679627338    2.59281553805887    1.69036016601887
H           0.80314840291854    2.32099235555209    0.62841346661011
H           1.67198071015919    2.11664820302807    2.09732817903861
H           0.94410267521310    3.59726099787589    1.81466091367746
