    26
        -50.45514390  Gyration_radius:  2.42731506581 Dipole_moment: 4.701
 S          -0.49881763044100    1.53828542081274    0.08963256195371
O          -1.29345722729301    1.94129569600941    1.20373328083000
O          -1.02958208572646    0.40952842437316   -0.65078357818243
O           0.92813311332481    1.15551861666823    0.57476462024630
O          -0.22518177817282    2.68260369718909   -0.85696759735228
H           0.11243929825688    2.22139334649817   -1.74065475969331
H           0.87144003186070    0.39910187445309    1.24198525232132
O           0.65502865991657   -0.77146541780171    2.24142993374980
H           1.13744711850044   -0.63496815776684    3.05917412634746
O           0.45780965692797   -1.85899444960679   -0.39435167091745
H           0.65750712932204   -1.82349148441530    0.54802199511374
H          -0.11471313849012   -1.09298857891792   -0.56666642391115
O          -2.61373681122595   -1.56008415986295    0.39638004250769
H          -2.25564420776060   -0.80811976390556   -0.10261420863455
H          -2.06514565468578   -2.31400244903476    0.16210961201001
O           0.48418173390194    1.34416843060982   -2.83052616791395
H          -0.26432395534487    0.73924311302034   -2.84053729244724
H           1.27062422794860    0.79565884370975   -2.49036645117426
O          -1.82352353236863   -0.29895166872930    2.64691821358496
H          -2.29920954064119   -0.83773449151205    1.98038632492017
H          -0.32875441771527   -0.66235992996126    2.47451950871391
H          -1.83748196832736    0.61033286341013    2.30176935722520
N           2.36300598357852   -0.14179549942678   -1.77021124691299
H           3.16218272806447   -0.47145645534370   -2.29536368532173
H           1.85592670103532   -0.95005161038370   -1.40765175562768
H           2.69384552554166    0.38933376990387   -0.97413002144468
