    26
        -50.45651719  Gyration_radius:  2.48729467194 Dipole_moment: 4.646
 S           1.71276318006877    0.43076981784482    0.51985509693968
O           2.42048566375446    1.42195868850800    1.27110771425426
O           0.74663867264931    1.01645367990349   -0.42979304907677
O           0.87298738943817   -0.38428805478359    1.57199570649730
O           2.54859787028090   -0.54642348466125   -0.18317616176804
H           2.05063178459284   -0.70347726702514   -1.59506396221269
H           0.40560686040289   -1.12355444229625    1.12682295770730
O          -0.78104064225087   -2.14522545951091    0.44868894514803
H          -1.27379643755491   -2.47858159030864    1.20002904234415
O           0.17632788450713    2.23653571465570    2.46338747248735
H           0.34770205663622    1.84419053448450    3.32241886409984
H           0.97804571640488    2.04375614176693    1.93841109611977
O          -0.80430612442728   -1.89325000192670   -2.34863004324244
H          -0.68450774339818   -2.43776885846052   -1.55827136771534
H          -1.40175629292966   -1.18468194488527   -2.06716476476992
O          -2.28979244575041    1.45245779556596    1.69209902770374
H          -1.36811849095185    1.68170083451218    1.94969370470432
H          -2.74534231110510    2.29193003295634    1.61207014517130
O          -1.70127409243553    0.08672161455277   -0.51883863611232
H          -0.81196559230816    0.51176501406858   -0.53497074886539
H          -1.26074343866141   -1.32473933706539    0.13410016877375
H          -2.13186340721003    0.54160696073185    0.23730598175792
N           1.41746456277625   -0.42330626113938   -2.42911687346478
H           0.62260948548753   -1.10456808748394   -2.54874728132594
H           1.92745541583391   -0.25179263384964   -3.28788633128214
H           1.02719048664092    0.44181061385769   -1.98632669395594
