    26
        -50.45514387  Gyration_radius:  2.42739128199 Dipole_moment: 4.702
 S          -1.38883828929546   -0.75319417786872   -0.35620520773338
O          -1.42900430904203   -2.17864415980566   -0.31789330088064
O          -0.35907918873629   -0.20344883602731   -1.21722964661457
O          -1.15262615006242   -0.19675410686979    1.07649448616964
O          -2.72721618236321   -0.15644946449358   -0.72091100783503
H          -2.51119634826512    0.83977486957898   -0.98272667096270
H          -0.28004193754734   -0.55127261759422    1.44185796743494
O           1.08467568517541   -1.14935333886312    1.88441748061153
H           1.03710451617506   -1.53335829473942    2.76210451641588
O           2.00836419876175   -1.43154986735370   -1.82702672333074
H           1.12455773994497   -1.03028190419999   -1.85061129531116
H           2.60203350374539   -0.73827662915042   -1.52510432132713
O          -1.93958545468705    2.12118299505470   -1.33867863742037
H          -1.46850081391453    2.45803780139023   -0.50223234012866
H          -1.23609298615274    1.84714172093752   -1.93560800441095
O           1.64509408770108    1.04580108709999    0.14184214258324
H           0.96265311096482    0.64912608894579   -0.42482799875342
H           1.76533710712199    0.42648485008209    0.87071535568878
O           1.10844773714843   -3.02859045575677    0.15270706793896
H           1.57388922993087   -2.65442067629210   -0.62457288970892
H           1.18417677158557   -1.93079103123335    1.24134167661756
H           0.16316430107561   -3.00295347455011   -0.07513548676428
N          -0.59487045947745    2.78030052495914    0.81074274812460
H           0.33996045913795    2.41070694385517    0.63355793784493
H          -1.00385199937750    2.22482357021612    1.55206540746125
H          -0.50855430955376    3.73595857268249    1.13091674427579
