    26
        -50.45514388  Gyration_radius:  2.42736633592 Dipole_moment: 4.700
 S           0.41966525417227   -0.74475545911965    1.37560551871822
O           0.66424789254023   -1.09988716226460   -0.00937343565225
O          -0.54207876595079   -1.56580312082737    2.03585854394813
O          -0.04719410699260    0.73819309322322    1.40698425774285
O           1.72990365067593   -0.68982401298280    2.12434464854756
H           2.41774463530772   -0.30360884691255    1.42766233572676
H          -0.94154941156472    0.82548953440899    0.94539210991793
O          -2.30564820647431    0.83286931405834    0.20014493537653
H          -2.97804367842252    1.30711668546657    0.69312008807850
O           3.15322168263048    0.17984113905809    0.27843416749097
H           2.70856816099512    1.05519440494803    0.01157206669700
H           2.88465618377384   -0.45780941406879   -0.39055217938588
O          -1.14275568564978   -2.30798469068757   -1.67069134617321
H          -1.14589327896158   -1.64825392262015   -2.36997139487294
H          -0.38128616280039   -2.09266087036208   -1.10812083821107
O          -0.25312719367501    0.74997823803448   -1.78720767674595
H          -1.10116610928889    0.96575182248305   -1.38283817685720
H           0.13034967247205    0.05366045893901   -1.22833807998604
O          -2.72511142052727   -1.67827725555265    0.42200689109350
H          -2.08269344327474   -1.85210615818205    1.13134628938082
H          -2.56715187799397   -0.14894964200185    0.24218243309146
H          -2.33552636902351   -2.07546958991094   -0.38498794365761
N           1.79825549853479    2.30645672696996   -0.43112612311606
H           2.23820120030243    3.13471112636469   -0.81015857990066
H           1.27348660201431    2.56627178746665    0.39500776443268
H           1.13092529717295    1.94985580408835   -1.11629626567658
