    26
        -50.47294798  Gyration_radius:  2.4442676067 Dipole_moment: 1.542
 S          -0.97262549300813    0.82379178237820   -1.58306087739448
O          -0.73222326485600    1.93495357601214   -0.67597777313719
O          -1.67645244836491   -0.27122351637118   -0.93765659481603
O           0.23310398197955    0.40636157150675   -2.27028194932429
O          -1.95522899840617    1.35829542130447   -2.70408170175345
H          -1.37370407131887    1.92312654762987   -3.20031327431319
H           1.49949902568917   -0.08729038529506   -1.42521613305442
O           2.29161841234054   -0.31812003341788   -0.87336739627196
H           2.96839464788641   -0.59527544413954   -1.49264857203265
O           1.53819928078678    1.82056624451527    0.69115522396658
H           2.05772776415409    1.19869516646303    0.15600817414410
H           0.74073849484210    2.01261747209682    0.15090398694977
O          -0.79100048269962   -2.74749954313217   -0.64716877357265
H          -1.57712564874534   -3.24367877529684   -0.41438341571735
H          -1.09821562032751   -1.84301301270357   -0.86767402626752
O          -2.09425002128435    0.83226193006797    1.39415592856795
H          -0.70580260002248    0.33149732792648    2.05756212519963
H          -1.85838500592481    1.69988253560215    1.04058806118898
O           1.17703845902364   -1.97976557980398    0.99718381445147
H           1.71930303835257   -1.49227177875682    0.34950838105551
H          -2.12175621292880    0.28299072849699    0.58147635885166
H           0.47117826958251   -2.39433998859605    0.45670028559758
N           0.30749088923052    0.13026098807509    2.28724233796398
H           0.46987899044831    0.14127389643360    3.28737431563583
H           0.87849206759241    0.87855197086756    1.78653053304656
H           0.60410653597691   -0.80264908185047    1.85544092102818
