    26
        -50.46167939  Gyration_radius:  2.40125968229 Dipole_moment: 7.745
 S           1.55023177698441    0.03218950670535    0.12225004553932
O           2.03740737537471    0.78665479146068    1.23804188750292
O           0.54585378134424    0.75818291637322   -0.66677660316658
O           0.78857846803758   -1.24843203834864    0.66440620357393
O           2.56813466676473   -0.54426965957540   -0.75080497968450
H           1.78067223394067   -1.48555568758784   -1.47103240085634
H           0.12655700264143   -0.95329705165524    1.35150460465657
O          -0.97296579864723   -0.43694040986999    2.38595876932707
H          -0.86636866755775   -0.85523440032653    3.24176125262221
O          -1.01557655498137    2.80905795618054    0.19783806867236
H          -0.33559411026127    2.25041506945610   -0.21700857457091
H          -1.85423718797532    2.37650774155874    0.01330489743998
O          -0.67587064248284   -0.37197001993706   -2.76967349462233
H          -1.51393509897774   -0.44703164889258   -2.29211491716514
H          -0.17350644515612    0.29101118937020   -2.25630634639418
O          -1.97738514901035   -0.14559034773388   -0.27882402762988
H          -2.09870122569794   -0.39273250078327    0.64285927540354
H          -1.06751821620544    0.19938883459515   -0.32686064737571
O           0.00465188557309    1.92604029071855    2.55099536218862
H          -0.40815466957089    2.46171330085279    1.84409091911064
H          -0.67323620112775    0.52367399146397    2.51295886984210
H           0.87705422137735    1.66576600245614    2.19515839211295
N           1.02193614865100   -2.17342735855501   -1.90284594042494
H           1.43458179820898   -2.82816868057506   -2.55976777061091
H           0.28661844532420   -1.54639648474870   -2.36619068352591
H           0.61077215336095   -2.65155530258639   -1.10292216196205
