    26
        -50.47291096  Gyration_radius:  2.43253068339 Dipole_moment: 3.130
 S           0.19382786330997    0.50492059426825   -0.95772294791784
O          -0.46080585550710   -0.44660569093151   -0.05314233948852
O           1.52021701494679    0.04492677330729   -1.32365870759567
O          -0.68001991978779    0.60274822808718   -2.23521849351864
O           0.20558580336145    1.83497059810103   -0.35424577829380
O          -0.27268970181153   -2.87931122830128   -1.02166747838575
H          -0.34620441247478   -1.99552214723896   -0.59574434176519
H          -1.13686076249718   -3.28720864079022   -0.94476263530418
O           2.24349042534346   -0.88477068362667    1.02569371345322
H           2.12550232333336   -0.56000866011542    0.10331464012706
H           1.76156882890965   -1.71506678133821    1.06006038644813
O          -1.49043537334060    0.29807228991496    2.30264475658932
H          -1.27579382205299   -0.20176230488785    1.49121794148874
H          -1.98227995519307    1.06996640957213    1.96230185928408
O          -2.22992634898406    2.31210939609923    0.65118712617861
H          -1.35506998075929    2.24131545916943    0.21952823640605
H          -2.87612265664490    2.25373793373958   -0.05393315314989
O           0.40818990930367   -1.49764731829875   -3.24289689367986
H           1.23337700802647   -1.13092825488126   -2.89505753554431
H           0.15931104270607   -2.19338111757208   -2.59931549734900
H          -0.39349899810322   -0.18753902684462   -2.78090755738659
N           0.95148925258068    1.18173672386306    2.08343984104709
H          -0.01523704895633    0.84372790812261    2.40750677684835
H           1.40343720494822    1.80354136694788    2.74493337813498
H           1.54537756349182    0.34002139488214    1.84779513064151
H           0.76357059583734    1.64795676875688    1.15864959273435
