    26
        -50.46167941  Gyration_radius:  2.4012793718 Dipole_moment: 7.742
 S           1.52851379798958    0.28183743854520    0.05266170402202
O           0.62182530617682   -0.69913169857199    0.66433717112380
O           1.90209690126058    1.33386933862511    0.94995719792464
O           0.69944559168292    0.90370766084421   -1.14736602302860
O           2.62706165540343   -0.39357307450404   -0.63103029130145
H           1.90997605253892   -1.06377184163533   -1.66151997595400
H          -0.02821858825469    1.47134234280230   -0.76545922578077
O          -1.22516697046724    2.30538568092447   -0.11983032722655
H          -1.21438539624317    3.21526537859151   -0.42104944815361
O          -0.99868812397621   -0.28374307238507    2.80707783053314
H          -1.81800329272871   -0.49839323642680    2.35193148183549
H          -0.28510644946547   -0.54611864367310    2.19997990870878
O          -1.93780049094500   -0.46673109871334   -0.18861499841809
H          -2.15906596882020    0.46128690692231   -0.31147503957419
H          -1.02431326944073   -0.46262826564479    0.15009505814231
O          -0.38209190735511   -2.75339055986349   -0.73729803353544
H          -1.26693973106416   -2.36231117438182   -0.75136173561702
H           0.06995664664562   -2.28115909127581   -0.01063738395249
O          -0.24529030573750    2.26102273115931    2.24757783023698
H           0.65705820918321    2.03794119504708    1.94521161708159
H          -0.93027864063203    2.33591266826905    0.85014507802278
H          -0.57455429025167    1.44927681662149    2.68324170396198
N           1.19380225102181   -1.47962860626161   -2.40264522289991
H           0.51904754987864   -2.09782127779786   -1.84481706954460
H           1.66658262690499   -1.99633584180624   -3.13746361304038
H           0.69453685669245   -0.67211069537591   -2.77164817360840
