    26
        -50.44824556  Gyration_radius:  2.63897074405 Dipole_moment: 4.529
 S          -0.02357440442263    1.65907398630545   -0.49081889396427
O          -0.99462710967697    1.19282280287013    0.46538851460948
O          -0.06438089783514    1.02916248760255   -1.77221256856447
O           1.39090928893103    1.49778263910300    0.13630097459996
O          -0.12346013311286    3.17702024069185   -0.63293612751254
H          -0.23803295135475    3.50880037938677    0.33912525106784
H           1.67971301085259    0.53050517238876    0.13194612116434
O           2.11003127315719   -0.96189994933661    0.00317410818171
H           3.06228637394492   -1.02978379700225   -0.08999697094217
O          -1.13846499311805   -2.82103695029455   -1.43271976124569
H          -1.83224514933829   -2.97020636010469   -2.07541802234454
H          -1.53795130980793   -2.25081749006823   -0.72499889830553
O           0.28703801386947   -2.65308099011478    1.33517495002428
H           0.09473263743336   -3.23261776826926    0.59148299583012
H           0.97890441730305   -2.04966581915523    1.02852041721473
O          -2.00591592388622   -1.33978325860206    0.57904008053009
H          -1.76081872737388   -0.40292006734326    0.51005423252236
H          -1.34255171274076   -1.73954981395040    1.16950952319654
O           0.99109082715908   -1.41334772246375   -2.23697187834526
H           1.71394700092987   -1.20335562428075   -0.90901246594429
H           0.23838208275153   -2.01165590434359   -2.02578539882954
H           0.59534967329914   -0.52935240349957   -2.32724453605325
N          -0.46685337090776    3.56575868226294    1.86475568701430
H          -1.12872902815156    4.22963931770065    2.24399073557570
H           0.37922018056926    3.58797162192634    2.41793060462200
H          -0.86399905839801    2.63053660849048    1.90172131592210
