    26
        -50.45514393  Gyration_radius:  2.42746561082 Dipole_moment: 4.701
 S          -1.09165417648294    0.21327459916347    1.17569292520163
O          -0.18270315308641   -0.88633261415425    0.91315369712888
O          -2.46212455136536   -0.07409957708934    0.90301841800811
O          -0.62890165430009    1.42347348914511    0.31584204463623
O          -0.88567544841859    0.71664672532255    2.58429896115323
H           0.15034516277183    0.62835388055785    2.74894554883721
H          -0.74292039896943    1.21013408656200   -0.66500086187906
O          -0.94989086695368    0.75836542927478   -2.13775977135514
H          -1.41179303845201    1.42310149185914   -2.65236536915207
O          -0.59706948511429   -2.86549176499663   -0.92881718895911
H           0.20938312928822   -2.74885649146337   -1.43889052311886
H          -0.47308199314283   -2.34795440012480   -0.11665379298058
O           1.57071981202358    0.35278666649928    2.73142885557931
H           1.57513164647123   -0.55985216312249    2.42579442897703
H           1.95036169894516    0.89767776713966    1.96055023243499
O           1.46949967353507   -0.44928887357808   -1.20917078032622
H           0.84694202082889   -0.04993226257552   -1.82733955843468
H           0.94392190219453   -0.67896656337405   -0.42480536175486
O          -2.56647259482464   -1.14443140006144   -1.59209436572542
H          -1.60278770831754   -0.01312405924657   -2.02576044799823
H          -2.00046061009407   -1.93588491618410   -1.47430255105757
H          -2.79984371459474   -0.85804935590270   -0.69229771711675
N           2.38867236342042    1.63691494130902    0.60001938727441
H           2.33173600866424    0.93610764633574   -0.13998920629874
H           3.29103620451246    2.09064835159300    0.54587826544883
H           1.66762977138149    2.32477936708166    0.42062472146979
