    26
        -50.45875089  Gyration_radius:  2.52050299164 Dipole_moment: 10.929
 S           0.70001307383855    0.46365391983938   -0.72750556682099
O           1.27551276513834    1.30828428306096    0.27980449293097
O          -0.71687335974189    0.73703987143701   -0.96402643311530
O           0.76990396277324   -1.03745569192737   -0.24275207721632
O           1.45053602741435    0.43143995574049   -1.98659795433597
H           1.06991817716451   -0.76686487988743   -2.56725224806457
H           0.34049721136559   -1.07780109615305    0.66011276099088
O          -0.45781807507039   -1.07932042800375    2.02826180847724
H          -1.07938916056713   -1.80281980826468    2.12327109145074
O           0.10690754382350    2.77861609518866    2.34359154064490
H           0.62058468446289    2.22154998157832    2.95103289603108
H           0.55945934800699    2.66701066444745    1.49585144435647
O          -1.85242949959303   -1.02287277813248   -2.47068503545952
H          -2.42419678298633   -0.54312833089767   -3.07288227233974
H          -1.50540999814055   -0.34113778623908   -1.83249303477806
O           1.70477151860967    0.56428548135651    2.92684801490879
H           1.06490428334894   -0.15610176552066    2.93183815739742
H           1.81401819222458    0.79871986820620    1.99294293385351
O          -1.75590464026935    1.05910568163574    1.50030700757841
H          -1.22965232577519    1.78849498606406    1.90581330815607
H          -1.52270281054351    1.07447383583999    0.55457216451630
H          -1.01909502740893   -0.23906791510017    1.91467166046242
N           0.63677678488414   -1.75632661772726   -2.89522015957463
H           0.97002014720345   -2.04894786405963   -3.80783441212944
H          -0.41032584865606   -1.59713049351742   -2.87106792274904
H           0.88997383837566   -2.42369915905310   -2.17060216524887
