    26
        -50.45209646  Gyration_radius:  2.57719644847 Dipole_moment: 6.618
 S           1.00748692552856   -0.46839873394581    0.13800821672882
O           0.89455733077860    0.93028410350495   -0.19817179761023
O           0.89888655919977   -1.35746441070921   -0.97406294384567
O          -0.08609856313488   -0.79467735517478    1.19762103700228
O           2.28668038669650   -0.73506085610474    0.91044654109856
H           2.16837726686255   -0.29336340070502    1.83572518312179
H          -0.99109377623467   -0.83251491754147    0.73997752112638
O          -2.29993438083921   -0.74728702911424   -0.05554652174816
H          -3.03579688217963   -0.36650824030235    0.42763749689704
O          -1.34455890695678   -2.81113732175435   -1.79380783266759
H          -1.95196093209048   -2.34700684402530   -1.20689607103093
H          -0.46000975700338   -2.60408992965715   -1.46164701207841
O           1.73046763117449    0.37825469508910    3.09527898389848
H           0.86629859752709   -0.01518906760213    3.24520200342219
H           1.57041758167640    1.32657352972270    2.80002078689370
O          -0.45765669254639   -0.82113304174179   -3.46172241947939
H           0.39831234952710   -0.92038369801913   -3.03061918666816
H          -0.95822435515413   -1.60776895889017   -3.17496250781974
O          -1.36160769052892    0.95131864526205   -1.70481686394037
H          -2.02773346545479   -0.06038991707583   -0.75948142471796
H          -0.52047094643624    1.14542427875804   -1.25889342407131
H          -1.11404065949282    0.41269490366080   -2.49724344199714
N           1.23720483052173    2.72223845518978    1.99221861539261
H           0.42325552628741    3.28679871824674    2.20012685994510
H           1.09504571705157    2.28507725893583    1.08126059770921
H           2.03219631540672    3.34370914399553    1.91434762464871
