    26
        -50.46658034  Gyration_radius:  2.40014872419 Dipole_moment: 4.039
 S           0.05964601499048   -0.98581453726023   -0.88913537178823
O           1.11867656824886    0.00636728990989   -0.64005382622734
O          -1.14791978371116   -0.33218844265016   -1.35980318480936
O          -0.16504567790080   -1.78814918725614    0.30716814573593
O           0.55469152990721   -1.91282612668805   -2.02786073453610
H           1.37321468117248   -2.31113937135521   -1.62703449852562
H          -0.86799319762509   -1.00397024808633    1.49523602714839
O          -1.25700808367826   -0.42717146954241    2.20829747073711
H          -1.53056605151689   -1.01873705583712    2.91081474192402
O           0.08708052711685    2.00207290442993   -1.98134499171006
H          -0.63123314142007    1.46657526385884   -2.34294616521489
H           0.67573487305456    1.32775044389794   -1.56806882045400
O          -0.86185126450824    2.82373865034679    0.21770491168400
H          -0.47704368876599    2.64671144912582   -0.73164063771063
H          -0.16727687634871    2.36997196064298    0.85723693842076
O           0.69494618132130    1.37950736193150    1.56552493998738
H           1.00730120468004    0.84436605211500    0.79790540123460
H           0.08359577936119    0.79856779391085    2.05109241371331
O          -2.60056459635454    1.02668795814162    0.34773826630146
H          -1.69989321874512    2.18032472654908    0.28478713216721
H          -2.23055894409771    0.46606799307401   -0.37477062027093
H          -2.36157381041616    0.55093128990759    1.16479912630572
N           2.48697680290008   -2.56279559891633   -0.40915540760173
H           3.15499735984837   -3.29732450303426   -0.21325099660094
H           1.75028610702756   -2.58300128372085    0.28910365245818
H           2.95138069544731   -1.66652332346902   -0.33234392236274
