    26
        -50.45785152  Gyration_radius:  2.5179053721 Dipole_moment: 10.755
 S           0.74644013682981    0.79471379354289    0.39861964753403
O           0.63562941876379   -0.33021197070571    1.32443240815102
O          -0.32908615742994    1.73623701789621    0.52388731756387
O           0.69758862157528    0.15235076116400   -1.05042928780869
O           2.08235793998367    1.39332427954138    0.43283109107244
H           2.88259147497674    0.48143856437635   -0.23651071058697
H          -0.23994903622844   -0.13534261443649   -1.22017670334555
O          -1.73377018259908   -0.70617526449397   -1.35633485797853
H          -1.87511857502974   -1.54012803557590   -1.80667638211494
O          -2.60605713699306    1.98847437197672   -1.05961658221788
H          -1.75418588686441    2.15345579364158   -0.62910866952762
H          -2.53051971654318    1.09831157810795   -1.42238860114810
O           2.22021987250950   -2.24031783870549    0.61550629637784
H           1.64162735151999   -2.95029426687280    0.33191651197499
H           1.62593367752322   -1.55123495483691    1.01769372525304
O          -2.87321183618246    1.41788122828393    1.65287927173886
H          -3.21157744381565    1.68451477980171    0.78170614545313
H          -1.95910739171834    1.73386388029376    1.64624399001911
O          -1.94938483218358   -1.03679587833630    1.16816429635557
H          -2.44376068107304   -0.23724052554344    1.46910748550907
H          -1.91681633122309   -0.87620047491995   -0.37078004558990
H          -1.01969560138633   -0.85123889582933    1.39786795597310
N           3.39621165629997   -0.35409139810988   -0.79484082472275
H           3.03679185316199   -1.22938349616190   -0.32029762302548
H           4.40676563478453   -0.28008633605437   -0.73749042439356
H           3.07008315132949   -0.31582409805375   -1.75620542052114
