    26
        -50.44824560  Gyration_radius:  2.63880900377 Dipole_moment: 4.525
 S           1.60995776441548   -0.53391771947530    0.34475482437708
O           1.37580483027694    0.27979804879667    1.49515675606403
O           1.33289339003500    0.08604648162788   -0.92535014840439
O           0.77322845955589   -1.84200971117756    0.43942230325488
O           3.03599516442252   -1.08279356988879    0.35366857095876
H           3.13705862185704   -1.51961537599124   -0.57714592459785
H          -0.19802182995663   -1.63769477602662    0.62394230240657
O          -1.66100452165518   -1.26330615163115    1.00912460532671
H          -2.06048731247067   -1.96215696357624    1.53075681601361
O          -0.57289317065337    1.98948219637026   -1.36716432323728
H           0.18760084363310    1.39980166922438   -1.23913151333506
H          -1.32501801421757    1.40453416091426   -1.56883921275980
O          -1.73307507240949    2.74233972507325    0.88701943740036
H          -1.24578174856942    2.53083514419844    0.04835792896211
H          -1.44324732262973    3.61671988573958    1.14818370616291
O          -2.79978921575412    0.43955141229443   -0.92963357894923
H          -3.06625289249639    1.14456871150072   -0.33137798936047
H          -2.45004050768980   -0.26654664862966   -0.36745710660317
O          -1.09094398780059    0.71195470884513    2.50807456652110
H          -1.50267717055619   -0.48106898478753    1.64971350273408
H          -0.12983428532344    0.66784384909860    2.36489800786506
H          -1.38983680245542    1.50330677143047    2.00440555828818
N           2.89924482648534   -1.95785479393298   -2.03900147353070
H           2.21185199866298   -1.22864843175157   -2.21048712990404
H           2.45537987793644   -2.86071983124168   -2.13964634196902
H           3.64988807737588   -1.88044982699434   -2.71224414367424
