    26
        -50.45408640  Gyration_radius:  2.49826413126 Dipole_moment: 1.863
 S           0.36366021965369   -1.34817924630648    0.94824873680145
O           1.26737207801601   -1.05212198867240   -0.14513415731336
O          -0.35033262373302   -2.58226549199242    0.81453279394062
O          -0.64657989058034   -0.18000848761034    1.06627047710147
O           1.10586673578942   -1.28402567357875    2.26322812024884
H           1.81138411539892   -0.50382872529338    2.12150702783416
H          -1.22290228277191   -0.11370711396618    0.21753752248006
O          -1.96733701602252   -0.14230031535957   -1.09699174978721
H          -2.30185049218418   -1.06703224535618   -1.11609493200674
O           2.63456954406874    0.54887959385811    1.61231909059007
H           2.00417153031825    1.35082470127864    1.59304638438965
H           2.66869205896752    0.22462085749922    0.70375638966400
O          -2.37039231346108   -2.75992620002934   -0.91345017755582
H          -3.09891620177369   -3.19592967250120   -0.46806753668174
H          -1.60040966954680   -2.83785666461235   -0.31352719800514
O          -0.25968934273786    2.35748321270480   -1.21849531251704
H          -1.16461003941503    2.05889675069487   -1.09297592742258
H           0.15665672158854    1.69382388257475   -1.78249330796385
O           0.38046500489316   -0.13018750935403   -2.43353809762437
H           0.79560840148237   -0.48590836375542   -1.61436315527760
H           0.65345754126716   -0.70752557254299   -3.14831397028281
H          -1.24443985828346   -0.12015366407013   -1.75627700278782
N           0.82535096848370    2.42180186915855    1.47035076523822
H           0.95603552608118    3.34371797927139    1.86606716084863
H           0.03979329265843    1.98068655821193    1.93372888028100
H           0.56437598183179    2.53022153975586    0.48912916579593
