    26
        -50.45785154  Gyration_radius:  2.51776079363 Dipole_moment: 10.753
 S           0.86383879546932    0.53840856149494   -0.55869383027014
O           1.23581198197994    1.19813568192219    0.65996381390081
O          -0.43668171902700    0.96566187995369   -1.06946081653845
O           0.71371868067279   -1.01453140036349   -0.27404676019774
O           1.89093613793062    0.56958513304042   -1.60189914693640
H           1.60043742784562   -0.52506332571791   -2.39998388247641
H           0.15203212951161   -1.11784560614971    0.54113577114724
O          -0.88107831180529   -1.20372424615114    1.76614797138187
H          -1.52996473317089   -1.90869018025187    1.78033656001237
O          -0.35809593248430    2.53806814633597    2.53369694062503
H           0.27186282943179    2.49607230344690    1.80100658552928
H           0.00362280398187    1.90881458661293    3.17999850558529
O          -1.28642185859529   -0.68366997443436   -2.86391049618297
H          -2.04467261855772   -1.11447699481614   -2.46548643028743
H          -1.03225359720991    0.04821070723742   -2.23986426724961
O           1.04877190319410    0.25163957900027    3.27240546414172
H           0.40796991597094   -0.43254408249042    3.04674198896782
H           1.39359094423458    0.55839622507919    2.42079113642501
O          -2.00345025698627    0.99589479450082    1.11003116732290
H          -1.39324484780487   -0.34377593553628    1.58736911219428
H          -1.58437745790408    1.66124929893329    1.70672633863595
H          -1.55176892624567    1.11574771769712    0.25380201289833
N           1.23342157515449   -1.44076267560833   -2.94827488597418
H           1.42705980424417   -2.24194839690793   -2.35440126661267
H           1.66970276353772   -1.53444131792590   -3.85978635722874
H           0.18923254663201   -1.28441045889236   -3.02434521874640
