    26
        -50.45408631  Gyration_radius:  2.49815697964 Dipole_moment: 1.866
 S          -1.63481335159972   -0.12344134352013   -0.40314620942632
O          -2.65444141839049   -0.25577637828529    0.59362053850524
O          -0.81953670409949   -1.30617932780412   -0.59402794134980
O          -0.69712348971523    1.05043708793706   -0.02626559594125
O          -2.21577776528217    0.32214220851653   -1.72524465567210
H          -1.45523695177739    0.09473950359956   -2.42953066265960
H          -0.22905303870953    0.86526297521474    0.86991168760653
O           0.38436530824955    0.43295050024174    2.18202901583612
H          -0.41506728340172    0.25940799458667    2.72797776560343
O          -0.27310352530869   -0.34538943761545   -3.10387058134492
H          -0.10363127773575   -1.10427397096194   -2.53181525717702
H           0.42020990386284    0.35554072573526   -2.84126983261312
O          -1.98553068359360   -0.23956153506907    3.17236216630130
H          -2.33755997038719   -0.34325375458064    2.26453063524097
H          -2.59929928654061    0.33701502005210    3.63060095302555
O           2.64350774985016    0.28495653078945    0.17082519702775
H           2.35740036957286   -0.61907734916470    0.35183494581427
H           2.30365838933023    0.81404448023452    0.89771513252686
O           1.10373989158782   -1.92529460950508    1.07722565415119
H           0.39481836985987   -1.77508745064065    0.41035571667207
H           0.74515521448813   -0.45220875682671    1.97210552808402
H           0.96193121846831   -2.80517660119027    1.42992812004052
N           1.38744750615560    1.43803457546280   -2.17498953630541
H           0.76060008390858    2.06851228153863   -1.68909562051149
H           1.99568755602065    1.98487356370959   -2.77053856526527
H           1.96165315524910    0.98680306759205   -1.46122859824047
