    26
        -50.45408642  Gyration_radius:  2.49822925646 Dipole_moment: 1.871
 S          -0.49664760354691   -0.31096436288904   -1.58518961892502
O           0.18318597669868   -1.38391754201749   -0.88772240395203
O           0.21108362654515    0.20768399488549   -2.71698030344333
O          -0.75472807932959    0.83238257485881   -0.57260890427094
O          -1.89363143548912   -0.74523030422080   -1.96456999797477
H          -2.19667667325497   -1.36553580828828   -1.15861464660673
H           0.13422009654061    1.21768337047781   -0.22871080908795
O           1.51995909525915    1.65543350141178    0.18511213891258
H           1.92986260144937    1.86520188374110   -0.68410140521085
O           0.37647688198085    0.27499897167950    2.62566701647186
H           1.01233364358997   -0.32919728449652    2.22248880847064
H           0.58230130289575    1.14305249343150    2.26804737215253
O           2.33269425766177    1.77402519961758   -2.33931838809874
H           1.62675144298142    1.14672541401494   -2.59840604649687
H           2.25009879128684    2.52489304866433   -2.92976557997188
O          -2.28433124841724   -2.14559947327053    0.03712365018450
H          -1.35596109213670   -2.40909590169508    0.05786437912830
H          -2.38583186367466   -1.44219005128663    0.76928467756979
O           2.16593918215955   -0.90442640671330    0.75950747598806
H           2.94600633215026   -1.38897042005330    0.48483029409233
H           1.93789280886885    0.81665401796464    0.46703921956563
H           1.44138372117158   -1.17412826004734    0.14942555363464
N          -2.35332460947614   -0.19780752471616    1.76959313842162
H          -1.43335671124504   -0.13827774783687    2.20882764394080
H          -3.05490457745475   -0.13414965593242    2.49585538498605
H          -2.44079588736151    0.61075629275853    1.16532135053611
