    26
        -50.45408631  Gyration_radius:  2.49825710276 Dipole_moment: 1.874
 S          -1.60130608463660    0.01420527318477    0.54192720847306
O          -2.52817333928266   -1.02106610118422    0.19586260050116
O          -1.26745247264073    0.91336639049708   -0.54438282563372
O          -0.28752284142574   -0.62318319745872    1.05850591275742
O          -2.08350604265774    0.80422178814055    1.73671189089481
H          -1.50072688017706    1.69053860680769    1.70952122019369
H           0.15011791711985   -1.19340657038849    0.32360297158512
O           0.66661117724186   -1.97217614112238   -0.86411415313766
H          -0.10078708522360   -2.55156164472909   -1.07083694271837
O          -1.70939633829089   -3.08029198923729   -1.28319632852552
H          -2.14100283619400   -2.33848442887758   -0.81173029472686
H          -2.04508117235426   -3.88236913378232   -0.87927849160950
O          -0.59638559709715    2.74914956626073    1.38085523809766
H           0.31520039981489    2.36600669883243    1.63236789537459
H          -0.66336062749024    2.65041100330747    0.42298776562841
O           2.58219971111869    0.35260402689361   -0.56533224541875
H           2.01026533898988    0.54487650924297   -1.31884249627515
H           2.50263734589640   -0.59344250805990   -0.41534878700977
O           0.43139257555509    0.22462742591455   -2.41888496204585
H          -0.22567858990866    0.55819741905951   -1.76557400898926
H           0.67704280801947   -1.30099489862350   -1.57633885616470
H           0.01506202001088    0.29078256317112   -3.27968212262659
N           1.64579077663248    1.52899031872009    1.91437321792461
H           2.07440622629396    1.26275470661448    1.02654351661604
H           1.31646661704943    0.67417255373848    2.34720608512287
H           2.36318699354713    1.93207177308271    2.50307701169548
