    26
        -50.46192232  Gyration_radius:  2.42603754781 Dipole_moment: 4.596
 S           1.35729885444303    0.28896277642386   -0.13125410593675
O           1.21638280401146    0.85486074966182    1.18861998024560
O           0.22571796633981    0.68247121466349   -0.99303145943516
O           1.46728437986262   -1.16859616444698   -0.11198880459150
O           2.64119017475822    0.87110638704256   -0.77627144910502
H           2.65687401615126    0.40806187663348   -1.65490311596272
H           0.39416894957917   -1.83622003703083    0.84524585250545
O          -0.36502682812434   -2.19918076511796    1.37974850712060
H          -0.10840126207094   -3.08589000675755    1.63701924827721
O          -2.44499108005316    0.99262286305621    1.30742393625550
H          -2.37530990883014    0.23905121200086    0.58593751592306
H          -1.99411167258400    1.79300815818507    0.85752535526855
O          -1.88256677079015   -0.77062899061079   -0.39937431263013
H          -1.09786160350570   -0.28917645684908   -0.75865105635259
H          -1.51607984997858   -1.48903322816559    0.14389672627798
O          -1.11832290712861    2.69714593729790   -0.04302506639845
H          -0.48766675924897    2.01355564966173   -0.38682882304831
H          -1.52593688611922    3.10021154193926   -0.81204113934557
O          -0.67356261793459    0.09662122116434    2.80165827839159
H          -1.74466321726225    0.66054837931433    2.05921232645156
H          -0.64260737387868   -0.84301975229538    2.53794588843473
H           0.11338428751090    0.49146904337109    2.34850809775993
N           2.13235652422665   -0.68358236508844   -2.81479068499919
H           1.28431522832186   -0.30490869102336   -3.21652190677401
H           1.86096962995163   -1.31537700071062   -2.06629699212088
H           2.62716593233921   -1.20408354231884   -3.52776278621290
