    26
        -50.46224187  Gyration_radius:  2.45660961053 Dipole_moment: 2.934
 S           0.82571092954506   -1.18225384845367   -1.56573886575151
O           1.86486191556619   -1.84031122812010   -0.80063790290239
O           1.07668735176298    0.23784410166053   -1.76928556517516
O          -0.49474720406422   -1.41362881957757   -1.00188722481399
O           0.84044755094215   -1.83441485382046   -3.00411342927918
H           0.95891793519493   -2.75614463332096   -2.80183672468514
H          -0.76196429678093   -1.12762347198145    0.50462721200622
O          -0.92941627574900   -0.93325644866776    1.47288886883839
H          -1.26047167477521   -1.75241187479334    1.84619841716300
O           1.87410165036819   -0.90404431144665    1.65850480881648
H           1.99349417807664   -1.39095273452162    0.81181216383157
H           0.92412414096605   -0.96366042116414    1.85137268104670
O          -3.30605653903185    0.16298722567212    0.24179270729838
H          -3.50952833061927    1.00138639120556    0.66155010953541
H          -2.59617272882936   -0.24599730192760    0.75591329797035
O          -1.34147530408629    1.43082400404415   -1.31158986217551
H          -0.55967272607099    0.95186878272236   -1.63360282775101
H          -2.04239265734511    0.77267858450089   -1.18367075496274
O          -0.65327344024041    1.90316280119698    1.17565341339758
H           0.87924947479363    1.80837126633745    0.81189946490074
H          -0.99918192948970    1.87308912815459    0.24193444090251
H          -0.83423448267028    1.02659930285343    1.53957622738923
N           1.81635224147624    1.42610262124775    0.46461826073182
H           2.03335006249747    0.57142799193223    1.05978519767235
H           2.55501850707981    2.11941868532102    0.48136221881849
H           1.64627167148202    1.05893906094588   -0.50712632282357
