    26
        -50.45034154  Gyration_radius:  2.64970481527 Dipole_moment: 5.104
 S           1.31138923716563   -0.04403841956313   -0.82097959078277
O           1.85267173418312   -0.48093278466839    0.43804624594998
O           0.52522731739857    1.15255744443370   -0.79711888237933
O           0.45983274725525   -1.19966055691644   -1.39335145829124
O           2.45315364936358    0.11091117837477   -1.83614424708877
H           3.06246375605466   -0.70172733502888   -1.67511605989110
H          -0.47937508565053   -0.83805013304863   -1.61120453160093
O          -2.49779686195654   -0.64773350030390    0.83920206725398
H          -2.82083314451062   -1.50532697484602    1.11723813028963
O          -0.46530457013105    2.44947634815132    1.44245676582913
H          -1.40360604427975    2.50301174853775    1.18683335994322
H           0.00688434125315    2.23398135920843    0.62570791749044
O          -3.12452748359070    2.05414548908204    0.77505520531999
H          -3.72297097707818    2.30166380441449    1.48137614775664
H          -3.04502830129180    1.08650609887343    0.80274372814049
O          -1.78750079633089   -0.10368635316883   -1.68550971598213
H          -2.18262558942681   -0.32983588885228   -0.81336829313549
H          -1.45454307085411    0.79767764176982   -1.59176805200147
O          -0.29623779943911   -0.13131382199059    2.09757827060806
H          -0.32538686063426    0.85490892068175    2.07420552420784
H          -1.63902722806295   -0.49348266684089    1.34089409750202
H           0.51825016542365   -0.36064109030445    1.62356300468069
N           3.70651176435994   -1.98310642505288   -1.06351231040690
H           3.37632463314562   -2.85513355218986   -1.45453835345350
H           3.26286976875080   -1.83608663111859   -0.16059596089095
H           4.70918466886618   -2.03408391963601   -0.94169299914473
