    26
        -50.46194433  Gyration_radius:  2.45225399051 Dipole_moment: 2.251
 S           1.99445196831913    0.45781222749760    0.62709822527822
O           2.62454366265622    0.30180103345426   -0.66230327802419
O           1.52203922457637   -0.81474433909882    1.16318906707040
O           0.93645815073364    1.46101046845170    0.61313350061581
O           3.06215986375303    1.00919420692498    1.65302643967199
H           2.80775074556585    1.92346789661944    1.71926582669787
H          -0.14994735255172    1.34492998828269   -0.50568042157459
O          -0.85542014695302    1.26975636062929   -1.21170190195260
H          -0.83537564009623    2.10395820804747   -1.68476998627915
O          -0.98611400988057   -0.32126474336722    2.09627310031641
H          -1.19129840228550    0.62538336344416    2.03791253024957
H          -0.03810514044903   -0.42053309431984    1.90185853899289
O           0.92574766136795   -0.48348832158717   -2.50763884399458
H           0.20748856069482    0.13912736162361   -2.31060365002341
H           1.69269092695357   -0.15645220448064   -1.98561941094357
O          -2.40863928953134    1.89183703802216    1.13940248564281
H          -3.22716734508417    1.39145120800726    1.12385623458186
H          -1.98420639662155    1.76771469664887    0.27879859874783
O          -2.00638274442200   -1.15073859088582   -0.17510447382670
H          -1.85577764297365   -0.34853604468921   -0.69167569065516
H          -0.71001463979605   -2.00402707795167   -0.49009675903640
H          -1.76438834730589   -0.90703653562910    0.75948978616178
N           0.31052470905606   -2.25805204754767   -0.68001721319589
H           0.46063722909635   -3.25753380361854   -0.75171703597100
H           0.87391126902369   -1.83395448081258    0.10291031556917
H           0.59443313615417   -1.73108278366576   -1.55928596411850
