    26
        -50.46194376  Gyration_radius:  2.4522422624 Dipole_moment: 2.248
 S           0.78689891917648   -1.46967587347138   -1.34246445537681
O           1.83304451164505   -0.79960760500289   -0.57655670368786
O           0.48068442421463   -0.77035593242169   -2.56760361135077
O          -0.39832705485470   -1.71767015453143   -0.53021373675040
O           1.34061116809032   -2.90576259751389   -1.69973739955408
H           0.58943137225898   -3.45405306817054   -1.49942435181346
H          -1.33460466695588   -0.50027479905837   -0.23569833158123
O          -1.93220625750327    0.27664522409876   -0.03301383821767
H          -2.79825394207914    0.02710900777735   -0.36135593123076
O           0.94450610562018   -0.77200958477622    1.99547925036394
H           1.29790050342411   -0.94245026900577    1.10527114066184
H           0.12088975842484   -1.27869970853785    2.07686063033166
O          -1.78985431847710   -1.06560327308483    2.51724858701418
H          -1.97763867639842   -0.58771087855671    1.69713276151384
H          -1.75259856963364   -0.41363057639986    3.22017238637477
O          -0.58086058333085    1.59264232955116   -2.12302889013164
H          -1.23328320715834    1.32902765693679   -1.45428382310670
H          -0.24418516867648    0.74597389026052   -2.49368709297042
O          -0.03503709608394    1.63720401368926    1.64281580374707
H           0.96129078358859    1.90819405795794    0.44202816091371
H          -0.84745119253678    1.38669401704419    1.18423820335133
H           0.36981374748998    0.77807053397012    1.94183077234119
N           1.46255201832061    1.80896138647167   -0.49656192440856
H           2.23551388785462    2.45579874621954   -0.60037727952670
H           0.71991478120765    1.92456030639658   -1.24930181513560
H           1.78124873236995    0.80662313016054   -0.55976854177219
