    26
        -50.46192234  Gyration_radius:  2.42603751462 Dipole_moment: 4.593
 S           1.29830504081132    0.42523693524582   -0.27721460467161
O           0.73438639901902   -0.11509782362341    0.97498568329718
O           0.66040255453907    1.67045193517105   -0.63039380609753
O           1.19200065673532   -0.58242680963619   -1.33092875598488
O           2.80015200028954    0.70507263230054   -0.01344724014209
H           3.14429934013062   -0.20304000990410    0.19482967627001
H          -0.27413258457691   -0.67025354009056   -1.92798892111855
O          -1.23298177257792   -0.74792308435706   -2.18943552088027
H          -1.23926625285852   -1.15512889639599   -3.05685978155213
O          -0.60957920828401    1.65420141421512    2.32831462618382
H           0.01054629582950    1.07890117604861    1.81089842169183
H          -0.57334591540829    1.34378618622376    3.23513505616949
O          -1.59026398415257   -1.23876903131584    0.48297084687043
H          -1.60462004319669   -1.31335855343356   -0.48641909621825
H          -0.67122159312218   -0.95435555510068    0.70903035687832
O          -2.61389071569863    1.02564584533187    0.88709428869831
H          -2.33102997532064    0.02485527685908    0.77924106911661
H          -1.90726298740064    1.40379961831433    1.52262845007337
O          -1.83323498777679    1.76719090264804   -1.35208830363430
H          -1.81401036194105    0.92638127766881   -1.84817749226025
H          -2.37409749588621    1.44099059035643   -0.08042004922713
H          -0.88186836329399    1.92793684777145   -1.12944493183386
N           3.05113362373014   -1.86943383973402    0.36280795394757
H           2.52995634718548   -2.05333444678047    1.21047587140565
H           3.73662448180263   -2.60293239346187    0.23588317449496
H           2.39299950143992   -1.88839667434971   -0.41147698148067
