    26
        -50.44824565  Gyration_radius:  2.63893101991 Dipole_moment: 4.534
 S           1.72196202161352   -0.02876511302059   -0.16150043766550
O           1.59043361427213    0.97012699606590    0.85103512638838
O           0.91175112336604    0.16247313932790   -1.33679063467036
O           1.39640367434637   -1.43068999507956    0.42905634457812
O           3.18616302410457   -0.19927880842977   -0.56339330278281
H           3.14444240915217   -0.82109120052568   -1.38766170513852
H           0.50659278943011   -1.42417132024104    0.90584724882028
O          -0.82310143435569   -1.32460643629413    1.71250061404736
H          -0.81917685111131   -1.94414557084461    2.44476785678877
O          -2.15855064315182    2.38310758421250    0.98879808855975
H          -1.89575102474378    2.08766880083547    0.07813287779002
H          -2.08665352907591    3.33788581453142    0.98813735367647
O          -2.94411007982887   -0.49188124020712    0.05128875655472
H          -3.23076366178535    0.25639185142425    0.58400785130913
H          -2.24518452702659   -0.92711166274125    0.56032443836538
O          -1.52974779480250    1.38212889843978   -1.37701703153809
H          -0.62199081811886    1.04230144608833   -1.43205745809158
H          -2.08959141550361    0.60349201096767   -1.20711065056415
O          -0.48077919110624    1.04107236112544    2.58399918941954
H           0.36153836684691    1.19333137533920    2.12201945812743
H          -1.14231718617961    1.58470877422736    2.09805684723977
H          -0.73493359380737   -0.39191066703857    2.12446944549325
N           2.64282805685265   -1.65989143429658   -2.58317155227579
H           2.49284062051752   -2.63823622784743   -2.37656685895484
H           3.10361193106016   -1.57710041593981   -3.47953891483031
H           1.74408409903081   -1.18580899006386   -2.61763294066012
