    26
        -50.45875111  Gyration_radius:  2.52127301278 Dipole_moment: 10.925
 S           0.74984192687047   -0.80824018474796   -0.11779751892788
O          -0.48660323245549   -0.99007376032379   -0.87702326877157
O           0.62712675897770   -1.19551603698250    1.25850291646145
O           1.07291733655954    0.73550809186809   -0.19176160011582
O           1.89140000296977   -1.41075961021121   -0.81299849692513
H           2.12999034730771   -0.54536124508513   -1.86801999492945
H           0.37053022829920    1.21096135185850    0.33913462119373
O          -0.84178989147433    1.89509687594965    1.09468309173576
H          -1.20923053054074    2.65775048722028    0.64503675684663
O           0.23081664956634    0.55683075297274    3.38464590884863
H          -0.11922426802013    1.27900862953757    2.85142374024184
H           0.60887218016683   -0.06736766054668    2.74710422125270
O          -1.60915868627738   -1.48650749591770    2.90169277824553
H          -1.22115279509216   -0.78716791259012    3.45270870695717
H          -0.86035331222033   -1.80428239235562    2.37804367334235
O          -0.39606242942316    0.05685243439220   -3.23359842110738
H          -0.80946278455351   -0.57022966632765   -3.82984925797386
H          -0.53344237226903   -0.31427254809480   -2.31933586086719
O          -2.41802354476884   -0.09159501618728    0.77158992197118
H          -1.86301397543459   -0.54059945682264    0.10868011328253
H          -2.32473576960093   -0.63167617129156    1.59199567330689
H          -1.54128135828755    1.16068082345263    1.02098064906870
N           2.16480398780468    0.24817917949968   -2.66979127637537
H           2.30890459397626    1.12888921077479   -2.18184742455733
H           1.18962318643426    0.23496635504733   -3.08386014508882
H           2.88870774120120    0.07892498485513   -3.36033947710060
