    26
        -50.46906644  Gyration_radius:  2.46842711046 Dipole_moment: 4.285
 S          -0.13341864574812   -0.44602699484804   -2.11976867312721
O           0.19058609179694   -1.42148492189205   -1.07468766604303
O           0.46226846200795    0.83952810774453   -1.83959563803119
O          -1.54492179792478   -0.40897965270275   -2.42311299406715
O           0.57223188223391   -0.98648809585569   -3.43789858731330
H          -0.12428953690941   -1.51590464933998   -3.81181183444498
H          -2.00154771073783    0.40601282968341   -1.09588066260610
O          -2.26279023114451    0.84199667454898   -0.25271176576182
H          -2.97958323999279    1.44058269021262   -0.47108933269745
O           0.00655501667646   -0.63606062804763    2.71759083167578
H          -0.70056889041585   -1.12901641695513    2.23558193175908
H           1.12050657294497   -0.78899857996346    1.76222063414291
O          -1.67574160998551   -1.62573414381558    0.91478754373265
H          -2.18039857280661   -0.83058208942211    0.69341862702006
H          -1.06854095298981   -1.74220640299961    0.16435652030971
O           1.96178473263959    1.76519303295402    0.04794230626811
H           1.39543107065397    1.45343495055116   -0.70446721085642
H           2.46394309091253    2.50897473310124   -0.28699465247496
O          -0.40698688652921    1.74888978488624    1.61328747773849
H          -0.20583074584739    0.31241287869152    2.55155938329075
H           0.40869446443214    1.92640200293846    1.12434110764037
H          -1.07049172965920    1.50331915939065    0.94692550858278
N           1.81387705208886   -0.81139958232202    0.90334893730134
H           1.23301503094519   -1.10738767600009    0.07096352504180
H           2.58818310296568   -1.44763090300773    1.05195513339611
H           2.13803399039162    0.15115389247202    0.71973953952316
