    26
        -50.45875095  Gyration_radius:  2.52107177047 Dipole_moment: 10.929
 S           0.73959035641485    0.82567616365768    0.03904953372740
O           1.27509417017896   -0.50530669639618    0.32191463727088
O           0.09167492928737    1.42382047279248    1.17113547514151
O          -0.32035861357710    0.62301966426729   -1.11348096790016
O           1.74879658376792    1.67833581471790   -0.59655822748614
H           1.83920056558531    1.17836869015450   -1.88518059993685
H          -1.08689862073347    0.11156564475023   -0.72363075763065
O          -2.20130862439505   -0.80079612614928   -0.06423131407116
H          -2.49271803612773   -1.52977923568931   -0.61428149641586
O          -0.98799354955268    0.30204906301820    3.48613815765462
H          -1.83991505478821    0.66642865401511    3.19517103992066
H          -0.33908061918021    0.80967274689470    2.97905331978994
O           2.08607711318878   -1.74453946058824   -1.79091413778422
H           2.91149007316719   -2.17401447365375   -1.55878470045059
H           1.73652799027010   -1.36141164281392   -0.94030389359421
O          -2.65986454687046    1.48767419726736    1.59018367096531
H          -2.86393078905841    0.74933828726355    1.00568802974488
H          -1.74004971966736    1.71950009069527    1.39238991926584
O          -0.65776752394055   -1.71008048126312    1.75985647102191
H          -0.80181830018915   -1.12087632915726    2.53806103727512
H          -1.67149306895005   -1.21709763355181    0.69731490720602
H           0.16534696140691   -1.38964470788080    1.34885922858745
N           1.79502388566213    0.63413918601226   -2.87298218806403
H           2.44744152995781    1.00449084092013   -3.55621934285314
H           0.83203764506284    0.71408908552167   -3.19059531696471
H           1.99489526312486   -0.37462183482692   -2.61765247443395
