    26
        -50.45875099  Gyration_radius:  2.52115104968 Dipole_moment: 10.929
 S           0.86019406537625    0.68160413348193   -0.15633657733838
O           0.43160695082726    1.55085555418000    0.90190398495316
O          -0.09139699380632    0.61516410311606   -1.26467006519807
O           0.97069183954165   -0.79184003569089    0.40016600871275
O           2.21859809333560    0.94673244474127   -0.64010567208633
H           2.60526398044091   -0.25320180220334   -1.21409114601053
H           0.09239560465557   -1.01429073929231    0.82471022405310
O          -1.36198879312681   -1.33002872181747    1.36736335321674
H          -1.70071130800384   -2.19057862683193    1.11524386029458
O          -0.75951608032891    0.71510962036237    3.27484032334453
H          -0.14120173456622    1.04815905582352    2.60719636268568
H          -1.05387283223968   -0.13926873361479    2.94045392627205
O           0.47353575103546   -1.22905651062982   -2.97837633584570
H           0.15186116181683   -0.54271181534696   -2.33182304745394
H           0.32673193039902   -0.85142490696866   -3.84753505562255
O          -2.09535864000689    2.50532761174275    1.59978100717842
H          -1.19713781879455    2.58066659481744    1.24858298201427
H          -1.97137722065023    2.04302774920637    2.44486744660546
O          -2.49852760312017    0.45599946969506   -0.06611437985384
H          -2.55074797412599    1.25564345291680    0.50957239179267
H          -1.72957496414536    0.61014880844609   -0.64408354024661
H          -1.90556261868459   -0.64891513273780    0.84339851947802
N           2.74052623371060   -1.28631884810455   -1.64782132853402
H           1.92122044085608   -1.39343888517090   -2.31124364663576
H           2.62678901475444   -1.93089305155654   -0.86928132044004
H           3.63755952490143   -1.40647076859143   -2.10659826534582
