    26
        -50.46248728  Gyration_radius:  2.40596587889 Dipole_moment: 4.400
 S           0.82805942084829    0.20562599866982   -0.92508934332799
O           0.17865631925149    1.50007860555824   -0.97104933995655
O          -0.04441443971497   -0.85010423261145   -1.44291503436772
O           1.24941326585304   -0.14248464106440    0.43920295957994
O           2.09722362273890    0.28433958354452   -1.80778900812581
H           2.45734293425198   -0.64116655529454   -1.75159350311895
H          -0.05307122690386   -0.93725872474135    0.97963852414907
O          -0.92566677655417   -1.36129552467002    1.17904526660287
H          -1.10205465784403   -1.90558283420829    0.40558909086973
O          -0.97447027569634    2.46722581418782    1.15573424214959
H          -0.33660945643772    2.19809918921224    1.86157486922107
H          -0.48427304228587    2.30070664068375    0.31237834403317
O          -2.29408660072425    0.46361148979390   -1.66101500279892
H          -1.49922740470288   -0.12422790269333   -1.68532588342567
H          -1.94995274544639    1.32453135896660   -1.92052864484962
O           0.84019128946505    1.27502882232956    2.65423694383429
H           1.15811653242123    0.80022651164685    1.85801148564841
H           0.58386367336900    0.59806011118185    3.28362377030128
O          -2.55321208827566    0.59659280140243    0.86464402853787
H          -2.60072993955291    0.55662864025114   -0.16608086246071
H          -1.98251876750638   -0.20929443079404    1.11759384350418
H          -1.91545824213789    1.49062480111167    1.07001562393629
N           2.43226358860513   -2.25611680822078   -1.32059128327090
H           2.84515887254932   -3.07182450563105   -1.75401469955129
H           1.42514665962240   -2.28029563093169   -1.44860271372264
H           2.62030947479995   -2.28172856767739   -0.32669366338683
