    26
        -50.46906641  Gyration_radius:  2.46839664153 Dipole_moment: 4.290
 S           0.97058541508134   -1.81805631760856   -0.68063447970426
O           0.98583948682443   -1.66277155169905    0.75519877233601
O           1.04634950217831   -0.51973871563964   -1.35693828520423
O          -0.09657386585397   -2.64630614388318   -1.19132067769905
O           2.31651122352488   -2.57359485915127   -1.06137338522017
H           2.04619577629065   -3.04299854370732   -1.84344099907044
H          -1.31213337670109   -1.85226127022479   -0.46709181386493
O          -2.03718737184877   -1.31685227742690   -0.07082279303160
H          -2.71254351001509   -1.94049317422553    0.20251302108618
O           1.13959542276276    0.36005498006958    2.35286224288227
H           1.50536062925059    0.07140017075320    3.18974112846576
H           1.08874258789295   -0.44847817736877    1.78024685461993
O          -1.37367625430338    0.56957722572975   -2.02020303918442
H          -1.92558850023395   -0.02334826843379   -1.49135218695708
H          -0.48801650097888    0.16994822488541   -1.98419123632741
O          -1.04269403343122    2.57165297754823   -0.30475768236909
H          -1.28455783936462    1.99416708379286   -1.06849989585247
H           0.37492980179491    2.19653815367163   -0.13990450095720
O          -1.56679026389268    0.83002385546871    1.63691583806000
H          -1.75757623223915    0.04356612660045    1.09868346361436
H          -0.70574914772253    0.66947341545759    2.04770906388053
H          -1.41502626004243    2.10249954399104    0.47851917045752
N           1.35576845246646    1.71038625290955    0.00281620970166
H           1.32318212202518    0.82134767083448   -0.56870674180583
H           1.44113064115329    1.43113266144335    0.99276553188363
H           2.12392208537819    2.30313093622145   -0.28873355973420
