    26
        -50.45082220  Gyration_radius:  2.58262518836 Dipole_moment: 7.355
 S           0.56573618178676   -0.01406253184132   -0.94952243511207
O           0.10880671131657   -1.35320026215404   -0.67086336426249
O           1.81907663569732    0.34473654528286   -0.36733849834987
O          -0.53319118790462    0.97658441666044   -0.45370678432725
O           0.57017674289474    0.23514974122879   -2.44793437925824
H          -0.17246837846758   -0.38039580914347   -2.83136993710407
H          -0.50944288987138    1.01439843216923    0.56333651402624
O          -0.44290725027119    0.89291531676349    2.08462983765387
H          -1.29237422670466    0.91349235727152    2.52964817347188
O           2.27766575370230    1.78679037022112    1.99353468506694
H           2.26417136471962    1.55207958739135    1.05557040297630
H           1.35779221088259    1.75010737460507    2.27826474842548
O           3.00944591714431   -0.86172091558164    1.94821887216453
H           2.96524560042373    0.05619366811750    2.27382193850977
H           3.02880417876346   -0.76759380335531    0.98922738809602
O          -1.29288645932068   -1.33915007540228   -2.99481818825390
H          -2.07075990226724   -0.78089363677997   -2.72363838191107
H          -1.05042736179840   -1.86248954855275   -2.21788648972450
O           0.43246310339090   -1.49346323787504    2.02541349238746
H           0.29722088809988   -1.68384434176671    1.08258824661407
H           1.41197083364028   -1.40533554554501    2.13557410052702
H          -0.09671225000751   -0.06580351097970    2.16837137027519
N          -3.05709396276442    0.40872429856404   -1.99638988885859
H          -2.35874854195328    0.85704056695171   -1.41060793878742
H          -3.83044942970348    0.12409609297988   -1.40897657603052
H          -3.40111428147729    1.09564446077148   -2.65514691813465
