    26
        -50.46192234  Gyration_radius:  2.42601461646 Dipole_moment: 4.595
 S           0.87551737973611   -0.82024169185281    0.70979687843456
O          -0.33167479350061   -1.38619509810023    1.26167640238951
O           0.79239306156717    0.65267803713641    0.67026020221773
O           1.17484208910585   -1.32476180185074   -0.62917981700716
O           2.05596357689337   -1.18182669213889    1.64740512163298
H           2.82689099461183   -0.77261592617987    1.17312441527509
H          -0.10590662886869   -1.33618806942223   -1.56353579660363
O          -0.91969983381402   -1.22380375767213   -2.12831394440405
H          -0.81356895140715   -1.82290778863295   -2.86864976735255
O          -1.10267895604710    1.60209025752156    2.17865796041013
H          -0.82051966294315    2.49439518284174    2.38883502701668
H          -0.33710522525318    1.16689490194724    1.72284035379074
O          -0.69922119999770    1.39785804777654   -1.36157254214738
H          -0.77716626763090    0.58778416169294   -1.89379593238117
H          -0.02646292877760    1.19038782123939   -0.66802042921287
O          -2.66616086559608    1.23387924815515    0.20142554926780
H          -1.93519486843823    1.42278270305234   -0.52191234414191
H          -2.17941413958557    1.41591397723220    1.08243674959616
O          -2.60167544728575   -1.24227632972259    0.00677206611892
H          -2.21854446219358   -1.36530238389771   -0.88287447462639
H          -1.83974247165952   -1.41689003006461    0.61460747118008
H          -2.76958189823441    0.16010883787585    0.15319936067288
N           3.59545282605994    0.02621751283562   -0.08521637012098
H           4.53772743521105   -0.03191820983187   -0.44963699666239
H           3.32862682251777    1.00046157767103   -0.02481118110380
H           2.95690440554874   -0.42652446761222   -0.73351795225664
