    26
        -50.46906640  Gyration_radius:  2.46839102385 Dipole_moment: 4.288
 S           0.58629509585138   -1.31603072343196   -1.62321242495665
O           1.23899707441897   -1.25589197577023   -0.31207763899671
O           0.17893349270477   -0.00326378860594   -2.06681793300145
O          -0.44525578889856   -2.32509073753725   -1.68174383085111
O           1.71302846684588   -1.79870682120163   -2.63588762606934
H           1.58885732836749   -2.74152059387479   -2.60885004413637
H          -1.55473510750136   -1.50680604851006   -0.82565276713576
O          -2.18720447567820   -1.01946948013031   -0.24957482523151
H          -3.06116135567544   -1.19260913239360   -0.60449759196714
O          -0.12070038694662    0.82233967309549    2.66475334318783
H           1.00098268965732    1.00469397362638    1.72378069394631
H          -0.25435523473209   -0.15289098504076    2.58404391836707
O           0.36898697444909    2.37733010081154   -1.08466582645333
H           0.34856368819590    3.01402065382987   -1.80001928689605
H           0.28092767114901    1.48426911457252   -1.50753599295883
O          -0.42695341093019   -1.67674207634325    1.81630892108616
H          -1.26329096850176   -1.59632594658347    1.33680788060658
H           0.24953074291522   -1.70121663302898    1.11833584043408
O          -1.71220658237799    1.56577513598910    0.66654801096023
H          -1.11226906234220    1.97644400840830    0.02827721987933
H          -1.93122924667598    0.69110756677199    0.30383942980077
H          -0.84255998786918    1.21011730347529    2.11630450077004
N           1.70443561826390    1.04551350353506    0.87377430642979
H           2.65931595688261    1.20309969322252    1.17339863611759
H           1.38272076247449    1.77465571263369    0.21791603304553
H           1.61034603595629    0.11719849247519    0.37644707402501
