    26
        -50.46122203  Gyration_radius:  2.40338679878 Dipole_moment: 8.891
 S           1.70534340808529   -0.23747040786255    0.31028765326182
O           1.94960375035947   -0.18123906760110    1.72402023885503
O           1.26013081801607    1.03505779122641   -0.25055150276438
O           0.50461238338189   -1.25969816087159    0.06280192685910
O           2.77021293553940   -0.83043883290060   -0.49639099446969
H           2.04965438844060   -1.20444408025171   -1.66870411214563
H          -0.19715878115573   -1.12589934853026    0.74348843004695
O          -1.44290906565247   -0.90699039133889    1.80125711125447
H          -1.53667875659998   -1.65320117687459    2.39465384454796
O          -0.71971929606943    2.47449819444009    0.83926845198188
H           0.10512671971782    2.14955053056317    0.43345990653798
H          -1.42427289497256    2.01742417318298    0.36176438708664
O          -2.40719657023728    0.44556451909221   -0.38136382445172
H          -3.35942506815849    0.54399634352417   -0.33895274174617
H          -2.14526817709594   -0.09781298677104    0.38249978104487
O          -0.30463111255844    0.50523568327273   -2.24666175764647
H           0.29897095570209    0.88283116453010   -1.56007898980967
H          -1.14333571716209    0.38402923025860   -1.77564647188601
O          -0.14291326629471    0.93690561476724    2.96178039495022
H           0.73905507549122    0.62167602014005    2.67607183265894
H          -0.35735842669424    1.68983088897502    2.36785952495601
H          -0.99792223526916   -0.16393544163787    2.34848564432589
N           1.36953300767368   -1.46714435507100   -2.50603300543704
H           0.96755740089410   -2.37771887901638   -2.30573433548928
H           1.86276695138095   -1.46942635642701   -3.39329266372516
H           0.59622159321365   -0.71118066880978   -2.48428873879643
