    26
        -50.45082220  Gyration_radius:  2.58274972096 Dipole_moment: 7.358
 S           0.31231346132468   -1.04835808389678    0.15758596604732
O           1.59185143541672   -0.72886943788542    0.70446884363165
O           0.16563333488701   -0.82425062552146   -1.25946305435041
O          -0.78227212417470   -0.20956635943515    0.88786883657942
O          -0.08822521503409   -2.47165139072433    0.50543748589620
H          -0.78923023935647   -2.74306675757357   -0.21047665409536
H          -0.51863108837665    0.77316529459119    0.85983799629014
O          -0.06466136508788    2.21671964982705    0.64872777872878
H          -0.77169487781170    2.84230619737237    0.47915120374626
O           2.36541449970423    1.61248856420683    2.04095955085368
H           2.16381425410044    0.68166332941326    1.87395654110894
H           1.56146150453502    2.09206813865510    1.81223955181209
O           3.49222192778054    1.10721186145337   -0.41392664135541
H           3.26158043195576    0.18555846614254   -0.25192620514866
H           3.37699183585069    1.53477726786740    0.45465004040949
O          -1.74068301702232   -2.75376603439108   -1.34871767551293
H          -2.51110611547687   -2.25330571565517   -0.96612166339238
H          -1.23334368392904   -2.11492652642273   -1.86905562813869
O           1.15310135541763    1.69584009163406   -1.52161139266983
H           0.82652656545930    0.79296410284590   -1.66876120718408
H           0.44536142452309    2.11267245019191   -0.23164399975548
H           2.10143650343817    1.59015275103603   -1.25885999000794
N          -3.47514889045076   -1.19427276451507   -0.03582698565905
H          -4.02439249081403   -0.48261628929959   -0.50065274171694
H          -2.74021324888621   -0.73549211555644    0.49441779917867
H          -4.07810619798479   -1.67744605445151    0.61774222471029
