    26
        -50.45974576  Gyration_radius:  2.48760597284 Dipole_moment: 3.660
 S          -0.90599004701885    0.46484933667827    0.13296383283865
O          -0.73060281066072   -0.71355244449626    0.97044048101589
O           0.21717248090133    0.59878602072276   -0.80928965275920
O          -2.17341976522692    0.51322166370599   -0.55928938815125
O          -0.80383242314493    1.68936770881790    1.10170069862208
O           1.01714292073941    0.16067231068255    2.73426475844142
H           0.29172598536067   -0.22476213043663    2.19834897846066
H           0.86651973000219    1.10806224253240    2.69787163238098
O           2.98909630976979   -1.02257379343535    1.47405940807409
H           3.10462850387183   -1.85531140232266    1.93609332434416
H           2.32063032957340   -0.50813581845299    1.99884464689613
O          -1.39123709838283   -1.44010616265711   -2.22051834848505
H          -1.84496380797735   -0.79121954452431   -1.64916631122793
H          -0.77316742960816   -0.92688414706892   -2.74616041328111
O          -0.02234047022971   -2.84831606590532   -0.41327618128058
H          -0.39239956787154   -2.28042869317022    0.29488383701586
H          -0.58738782695130   -2.63195375130438   -1.18733824817975
O           1.86464290182371   -1.26128163403542   -0.80309326188182
H           1.23650724767705   -0.42115563020390   -0.84745567763291
H           2.38800133267097   -1.16998253197125    0.07604401764126
H           1.16185012576064   -2.05127511162253   -0.67299327602110
N          -1.59057557817054    3.25919017324211   -0.81454707618622
H          -1.06051731917745    2.46092973781566    0.51671727467624
H          -2.20928381986683    4.05957399542923   -0.82926436027380
H          -0.85781555604106    3.40304892188782   -1.49688482941672
H          -2.11438434782727    2.42923675008323   -1.08295587563105
