    26
        -50.47037215  Gyration_radius:  2.48228627106 Dipole_moment: 2.683
 S           0.14428672233806   -1.41537925442169    0.04435604945850
O          -0.17416179669937   -0.69342845018389    1.27652196025417
O           1.34464392615380   -0.88840904860475   -0.57630511490038
O          -1.00079959195515   -1.45649938946495   -0.85794201957919
O           0.48145539642215   -2.88700853933588    0.45111736213282
H          -0.38806940038555   -3.27753701175429    0.67214095743399
H          -1.42178066031585    0.01528091470614   -1.47695890329369
O          -1.63652940146777    0.92614922377756   -1.78293668793394
H          -2.33807073060665    0.83844800412342   -2.42991004913328
O          -2.10178083573984   -3.43446677813799    0.48708711364249
H          -2.41101734589937   -4.12649418962460   -0.10208633306026
H          -1.98139827915080   -2.63373694035605   -0.06006810559671
O           1.19158776431040    2.80122471480347    0.49075047066667
H           1.78797942990915    1.63217201265056    1.11903124066692
H           1.25276775640801    2.53453712426368   -0.45941167017031
O           1.07712627344153    1.52524277213224   -1.83007701218883
H           1.28119488799250    0.62159910518997   -1.53410100765190
H           0.12578403855667    1.51333132462303   -2.01563457000774
O          -1.23441638958142    1.78772651073396    0.83884695951706
H           0.24028148566835    2.65056788404476    0.71378211431060
H          -1.55794832851233    1.69356190908851   -0.06933494312464
H          -1.00005047150704    0.88586153215343    1.11821970220106
N           2.06346685034087    0.60583432712331    1.45660722334839
H           2.76792823642693    0.58225122423041    2.18475648350040
H           2.32374487016657    0.06470345208448    0.61536303602425
H           1.16377559368948    0.13446757614594    1.72618574348390
