    26
        -50.45875100  Gyration_radius:  2.52052805934 Dipole_moment: 10.928
 S           0.04001847418702    0.38752949574411   -1.04017561385830
O           0.15131090280052    1.40112882131845    0.00790459350098
O          -1.31487759012763   -0.00831862726556   -1.29853793130825
O           0.85013005878160   -0.86137595115536   -0.51377085847674
O           0.79157024887985    0.77862577258050   -2.23673414096899
H           2.11480187795498    0.59792503561582   -1.86909088992380
H           0.34600499667041   -1.23424117321844    0.26597538111795
O          -0.44546364984981   -1.68909067410701    1.56048557177627
H           0.11038192131446   -1.88115948701187    2.31743052093234
O           2.58396168899194    1.82750749904104    0.75413839331136
H           2.67837143502633    2.77624002768285    0.85694585848604
H           1.61700252680700    1.67425826297083    0.56966598875718
O          -3.62270625183129    0.18293810795673    0.25843562376483
H          -3.65436414475124   -0.78712842310213    0.22313125553099
H          -3.04314452848145    0.41792661005899   -0.47969454044567
O          -2.51647284982324   -2.31638331180001   -0.31071766833374
H          -1.90245119174203   -2.44116283329307    0.42127165834435
H          -2.10179635946993   -1.64866565783591   -0.87743909527391
O          -1.56520897065209    0.58169049342934    1.91511818024779
H          -0.99224610287451    1.06259260604361    1.29094724810869
H          -2.43831975752184    0.51346299397862    1.46063004467797
H          -0.94026839928624   -0.82962793333799    1.78538001517453
N           3.12274118495898    0.41333379352214   -1.39598353979891
H           3.12765883524925   -0.56791686608613   -1.12827842603452
H           3.10821247020601    1.01270757910983   -0.52232251291105
H           3.89515319450350    0.63720383915900   -2.01471512636881
