    26
        -50.46575962  Gyration_radius:  2.39065720508 Dipole_moment: 5.482
 S           1.53324387864931   -0.27151253303406    0.15489338973450
O           2.15206376824514    0.37762031388792    1.27250894135350
O           0.68354992333320    0.62743750742887   -0.64289258975647
O           0.54099616763897   -1.37805876090729    0.70665844699564
O           2.42457809090746   -1.01904647192160   -0.72385958534532
H           1.55692356180796   -1.20483486086740   -1.86255609444936
H          -0.08796878581881   -0.92083247430088    1.32882323595178
O          -1.15140915198564   -0.11352030581004    2.22860276627222
H          -1.27997621082347   -0.52685621973983    3.08386593886580
O          -0.24224913956346    3.02982278867880    0.15088032769077
H          -1.15999323601337    2.94101118389823   -0.11563260184841
H           0.22046075517511    2.25066930591619   -0.21151223056598
O          -1.19910607128151   -2.30568578386731   -1.27730289507509
H          -1.68734760971647   -1.47497642677797   -1.04808486653853
H          -0.68843422239419   -2.50728275304124   -0.48194574597049
O          -1.91385427627938    0.11332221901041   -0.47110985724197
H          -0.97731136037679    0.38655714171474   -0.57276542725127
H          -2.05132127423712    0.07136859461040    0.48378549468731
O           0.38114042241693    1.91015206851222    2.54322058100586
H           1.18302520450369    1.45221234969965    2.21868200057799
H           0.15758143443738    2.54645255780476    1.83612134569125
H          -0.61913919130827    0.73308070922781    2.40888119043948
N           0.75456111845694   -1.19463004266457   -2.61763504985897
H           0.49374851519171   -0.21126221275532   -2.69179723154806
H          -0.07408684629858   -1.73308623433617   -2.19011611422662
H           1.05032454532296   -1.57812162030145   -3.50971336956704
