    26
        -50.47037227  Gyration_radius:  2.4824393983 Dipole_moment: 2.685
 S          -1.06386587782761    0.38833803067660   -0.86172920624956
O          -1.10708763109660    1.27222283637922    0.28747503885203
O          -0.95798357518947   -1.01117152817552   -0.44822609192237
O          -0.02207619668316    0.73919194142661   -1.82012841859665
O          -2.44347294158367    0.54949495892317   -1.57969772349746
H          -2.31296265714857    0.11339021442069   -2.44586268549043
H           1.50305962116349    0.73205730949082   -1.18668904205609
O           2.38515538611218    0.67772930194873   -0.75276056285320
H           3.02442242655746    0.99148818911266   -1.39409460363734
O          -1.35525587592486   -0.36092405319102   -3.80678287553669
H          -1.37841561199631    0.21702815156839   -4.57297673476595
H          -0.62824551017909   -0.04202454497805   -3.23695645003002
O           0.99530404355778   -0.69303301637070    2.83512076746922
H          -0.42874956901785   -0.70378007415191    2.53676210192228
H           1.21584827556408    0.23721333884415    2.58257954151705
O           1.26131482936589    1.63797404460649    1.60112038894677
H           0.39477740025352    1.69495477559741    1.16332776672576
H           1.88279173726464    1.42733139162040    0.88769869360172
O           1.53485317362731   -1.69577289250763    0.43984659840817
H           1.33473662031495   -1.22690470535016    2.07539742530682
H           0.65984718928752   -1.61261707460992    0.02296084161385
H           2.07352409128155   -1.00012138318446    0.03457845581951
N          -1.43862127224239   -0.62288590707913    2.07103413809162
H          -1.36780355092449   -1.09272264178098    1.13370467820639
H          -1.56866477470246    0.36230880165930    1.78696282627654
H          -2.19242973984082   -0.97876545486340    2.64733512187058
