    26
        -50.45974578  Gyration_radius:  2.48752785659 Dipole_moment: 3.660
 S           0.31827702053585    0.09808527269479   -0.97176008012444
O          -0.96850482180055   -0.16872729095777   -0.30823788769524
O           0.77953991095084   -1.26704568811012   -1.58166299081739
O           0.16401456453235    1.06388628692229   -2.03539022084905
O           1.33387146376242    0.45221032054176    0.01005749898921
O           0.48852444963583   -1.56303187033504    3.07694204641361
H           1.05031802500856   -1.80751659265166    2.29498928447563
H           1.09473212840302   -1.24872894961198    3.75072193756989
O           0.47117151418343    2.21460873358778    1.77718951210498
H           1.06815301265433    1.68737910785701    1.20573055108960
H          -0.06441568969645    2.72167148996532    1.12817750408397
O          -1.02296804337474    2.78666156522661   -0.35911788945050
H          -0.53940956618380    2.30954841411934   -1.06046340834409
H          -1.86577065382233    2.33395669859663   -0.27894842553776
O           1.98898489795317   -1.91587312133376    0.95522292212294
H           1.73827385979860   -2.48781561915351    0.22611664062386
H           1.89673833201760   -1.00703471400774    0.59820931848311
O          -1.03398218230480    0.25624716671453    2.13903379928347
H          -0.42901293746812    1.13310700733966    2.13083607639724
H          -1.08400555258316    0.02113209310909    1.11693804103821
H          -0.47919436775902   -0.49356022898561    2.56910548193377
N          -1.07650746437572   -1.07400333604406   -3.39087185411210
H           0.13420212134144   -1.40614390708270   -2.33503626772945
H          -1.09428316225211   -1.30065903923384   -4.37677194503429
H          -1.99135938410572   -1.25613288865692   -2.99956344211127
H          -0.87738747505384   -0.08222090051787   -3.28144618280913
