    26
        -50.45974538  Gyration_radius:  2.48847145994 Dipole_moment: 3.657
 S          -0.27922522794251    0.56325092251992    0.80621766523576
O           0.03210258162267    2.08254512271325    0.59904465053639
O           0.93851101217455   -0.15887091819017    0.40235125974491
O          -0.58490280794878    0.32836380217118    2.19885630951063
O          -1.37608665255293    0.25986176230051   -0.10235409689093
O          -0.48897103037785   -2.32356245404725    1.81619230817902
H          -0.63969204815790   -1.39905390952604    2.09154219131565
H           0.46292075611502   -2.40895011208129    1.72477766461371
O           0.22727304519639   -0.20367057852643   -3.47470701284409
H          -0.48491315243973   -0.50560396724444   -4.04206919041540
H          -0.10131290951040    0.62740796689499   -3.04080984322114
O          -0.79897529682588    1.81229681116568   -2.14847394414046
H          -1.15857405029807    1.28551635982570   -1.40336734704592
H          -0.26290705382800    2.48894941950445   -1.72852035292373
O          -1.58855735038378   -2.32249669647788   -0.61601075586876
H          -1.81735695351348   -1.37638182938122   -0.50136166303339
H          -1.35034136673537   -2.60382649807917    0.29461969572865
O           0.67692202451372   -1.74443714413210   -1.49221063423810
H           0.55272479490845   -1.16369235580017   -2.33040268077588
H           0.88179729845547   -1.07406200398220   -0.71002801403329
H          -0.28344486580642   -2.11262979738910   -1.21711329130307
N           1.60022360890928    2.04226752579020    2.67121876905625
H           0.93018148181274    1.34253217878779    2.98234277781587
H           2.47448253764522    1.57451210585441    2.47115968121914
H           0.68583030531622    2.28110324676028    1.33195387747234
H           1.75229129964591    2.70863104057010    3.41715200630981
