    26
        -50.46122205  Gyration_radius:  2.4034144087 Dipole_moment: 8.890
 S           1.22863338068749   -0.54371822157767    1.12050060079251
O           0.65644654258669   -1.48295563754751    2.04349430359032
O           0.69120326100819    0.80656670496859    1.26207352272314
O           0.83725782066793   -1.00942590224545   -0.35524387512693
O           2.68845049310581   -0.53010453340664    1.04947224532866
H           2.89459807150935    0.05864077087836   -0.23278713628058
H          -0.10342252000504   -1.30671493986993   -0.37608787440582
O          -1.68767135162244   -1.74621200124172   -0.50142817302911
H          -1.78081900783445   -2.68379815865362   -0.67459537663851
O           0.74367569946023    1.91876223591802   -1.07755786601613
H           0.70011420844005    1.67270008333098   -0.12055168115216
H          -0.09370843891117    1.59006553981503   -1.43909783892869
O          -1.93918145399152    1.30511193383757    1.37192727547120
H          -2.05089628817475    1.36116058051604    0.41396095159135
H          -0.97430600688993    1.26520116464109    1.50634447112133
O          -1.80644185401334    0.80941229847672   -1.49009263021940
H          -2.59176168462493    0.94194750819868   -2.02293464942132
H          -1.79554960103654   -0.12896818769873   -1.23187017187968
O          -2.01301610474673   -1.30860773797159    1.97636548362889
H          -1.92022823839603   -1.61631542420369    0.48785205192512
H          -1.07095805118180   -1.42790368272640    2.21545779831936
H          -2.15721211452067   -0.33681681067959    1.95546956402032
N           2.91425886396488    0.49795764071221   -1.25227017889520
H           2.02246887839941    1.10732530650097   -1.31017945348935
H           2.85518846737306   -0.26440976393738   -1.92022084757376
H           3.75287701876839    1.05109923401812   -1.39800049545846
