    26
        -50.47037232  Gyration_radius:  2.48248932104 Dipole_moment: 2.684
 S           0.09718446424753   -0.09282138932509   -1.41662829466144
O           0.97455187722682   -1.10762162791998   -0.86508083974703
O           0.31660543057722    1.20222196083887   -0.77200816744907
O          -1.31133097713455   -0.46959900134601   -1.38573706648643
O           0.51352345391783    0.06640139247995   -2.91529821135200
H          -0.21267853724613    0.59073873466441   -3.30920997085715
H          -1.88688626913963   -0.79171800826401    0.12842556930878
O          -2.17058494533837   -0.93837948253781    1.05972429862341
H          -3.07323268127749   -1.25819744737327    1.02271609673737
O           1.39104085826709    0.13151458788895    2.74897165992457
H           2.14283961570649    0.40887115639110    1.53462308605836
H           1.06343640683576   -0.77851771328782    2.54314215653629
O          -1.86488702653755    1.08907006767675   -3.43482619867058
H          -1.94113313226096    0.58428472257158   -2.60160486360081
H          -2.40521526894691    0.63263504501217   -4.08391716412766
O           0.32566158149381   -2.02109881203959    1.62751086037319
H          -0.62167230784353   -1.81624932563849    1.63954764736938
H           0.59608604834795   -1.87926550797848    0.70417145705295
O          -0.73767411145111    1.35431317887226    1.74525291532479
H          -0.44580351717620    1.46892801523655    0.82436302332134
H          -1.39563986340230    0.64409320995119    1.71388536432254
H           0.59941714532476    0.70368436262758    2.59618500011210
N           2.49077845480265    0.55382701236929    0.48519544191348
H           1.75257832128152    1.13005121616510    0.00840044201367
H           2.37986870344114   -0.35000854247002   -0.00357485524913
H           3.42316626627758    0.94284219544720    0.40577060321005
