    26
        -50.47037212  Gyration_radius:  2.48229930997 Dipole_moment: 2.684
 S          -0.18110234678707    1.40041311007584   -0.17794620227072
O           0.89311503867031    0.72385444033301   -0.90530521199644
O          -0.07524382218568    1.16672298837419    1.24964668390532
O          -1.48964581249638    1.05704490403333   -0.72288764239776
O           0.02840774507205    2.93691350724616   -0.37844747114471
H          -0.24914315403361    3.09591543435284   -1.30314651694921
H          -1.92187316865626   -0.51954265445255   -0.48988679648154
O          -2.10134970376554   -1.47663803969607   -0.34445588561722
H          -2.99756343964929   -1.63492263435980   -0.64475938765193
O          -0.80088532131839   -1.32467235903101    2.10719858796872
H          -0.63342209168855   -0.37819907200670    1.95890505776471
H          -1.39281607809696   -1.58467316528164    1.38493698691972
O           1.52666079626046   -2.32640505269955    1.32833900998480
H           2.10649872737744   -0.99214296953071    1.30053737559956
H           0.67383289958825   -2.13260852492051    1.78963182969326
O          -1.21254278279840    2.76989900404221   -2.70364053815220
H          -2.00353121685508    3.30199458698120   -2.81699251229531
H          -1.47336903905800    1.98873541899295   -2.17754318226472
O           0.53397373744056   -1.97849984811398   -1.10622302702240
H           1.26227429251294   -2.41947448894879    0.38023199041264
H          -0.42075421393472   -2.05015807106479   -0.95884667164618
H           0.70116603518432   -1.02699381950499   -1.22028157774655
N           2.31759696873394    0.09473058851472    1.16894238439706
H           1.59314479870259    0.61443558275413    1.69184736821724
H           2.05349829718325    0.32693344691047    0.17875145492821
H           3.26307282460184    0.36733768699893    1.41139389385251
