    26
        -50.47037220  Gyration_radius:  2.48234726811 Dipole_moment: 2.684
 S           0.93788748395454   -0.33070505268939    1.01812118562339
O           1.47331638567828    0.81455499140408    0.30719282241509
O           0.49986181807367   -1.37234278021292    0.08858622228356
O          -0.11884565659254    0.01831082354144    1.96079890989455
O           2.12990066233808   -0.92262455236124    1.83887303604493
H           1.70433121518586   -1.55082568193469    2.45668317345452
H          -1.41713151177220    0.76702190297620    1.26752673476886
O          -2.16976831858321    1.17924801130086    0.78482747058023
H          -2.79909500067053    1.46122441102037    1.45031022409391
O           0.39671023602039   -2.08744327578746    3.45537191953179
H           0.43946377048919   -1.85212567451335    4.38512555046734
H          -0.07146588684292   -1.35852075962369    3.00313855212446
O          -0.57279801722658    0.71100742826381   -2.94523869839111
H          -0.54848442205132    1.51410686216538   -2.36896600214722
H           0.69278995504305    0.09648683630328   -2.57369073181081
O          -0.36397821249234    2.41745512994176   -0.92728793519998
H           0.37411283877393    2.01165747260349   -0.44108476784650
H          -1.14898992344415    2.21163901845878   -0.39716766937047
O          -1.85471345416829   -0.78488840672250   -1.16963566113802
H          -2.22795088704426   -0.12554692855777   -0.56603722370745
H          -1.20134475575604    0.10804311943686   -2.47746817434089
H          -1.09657819746404   -1.16379844732555   -0.69216572673181
N           1.56625911288164   -0.34851973847890   -2.04252911322982
H           1.92762268760655    0.36751084739648   -1.39069862781630
H           2.27670801221345   -0.72952638206276   -2.65663685327966
H           1.17218007584797   -1.05139917461367   -1.36794861628918
