    26
        -50.46575957  Gyration_radius:  2.39064649539 Dipole_moment: 5.479
 S           0.50041982401618   -1.48277580503619    0.01670629841684
O           0.96036535462334   -0.20847623901402   -0.55870508012544
O          -0.12817920766217   -2.34299035988750   -0.94151723158774
O          -0.58033653938320   -1.06823170223838    1.10015759959428
O           1.56717571155904   -2.08121080286019    0.81004662627246
H           2.16958647577696   -0.89046979521300    1.35998900143996
H          -1.34563296976508   -0.66316611003399    0.60841500227490
O          -2.49957193226157    0.09196771174596   -0.22316449917121
H          -3.37281454798148   -0.23082943960877    0.00507193946015
O           0.28403959803929    1.07799553610116    2.67276988461025
H          -0.01815438164621    1.59977028672961    1.88708863044903
H          -0.22500894987575    0.25803421261680    2.62243604729387
O          -0.40838241777148    1.91358967251211    0.25688307983442
H          -1.32162359675889    1.63844923707320    0.10622074525754
H           0.13250661107473    1.18372810849222   -0.11296320634019
O           0.17984106251781    0.81981488650642   -2.92354362993800
H          -0.00141779226059    1.72197060262995   -2.65061786995402
H           0.59781393440274    0.38469859446331   -2.15644339052238
O          -1.82191483602436   -0.95254010640573   -2.45772484629916
H          -1.24453316795556   -1.63238905449251   -2.05467990004365
H          -2.30709219557607   -0.26843016953659   -1.15350766660201
H          -1.20482882322452   -0.32692558472659   -2.88513462932697
N           2.48766599851355    0.13047185716741    1.62618006713831
H           1.66918946556685    0.57465209471977    2.16638094417218
H           2.57477220172904    0.60657766336914    0.72822149774251
H           3.35611513033133    0.14671471493470    2.15143460596299
