    26
        -50.47037228  Gyration_radius:  2.48244926873 Dipole_moment: 2.685
 S           1.04509634755384   -0.49601814501010   -0.82873361644453
O           1.17132812539520   -1.16066812526864    0.45429912502739
O           0.89490746907061    0.94983355527170   -0.66215064910337
O          -0.01699426237067   -1.04786408978724   -1.66198402323438
O           2.40143653901147   -0.73210724618978   -1.56989361992520
H           2.21860285355062   -0.46081316270147   -2.49209020532135
H          -1.51512886356510   -0.98395503591101   -0.96961098454374
O          -2.38101102663479   -0.88566105759190   -0.51150487294677
H          -3.03056979056890   -1.33068970750375   -1.05780866728539
O          -0.91297617570746    1.14689081345554    2.71293517215873
H           0.49643503257769    1.15592461479991    2.35190596228815
H          -1.10260519872788    0.17931009323506    2.63748128493356
O          -1.12553226980810   -1.37348700587846    1.91988531917450
H          -0.27512865753944   -1.47575136994508    1.45927302348077
H          -1.78300196030470   -1.31473594238413    1.21004747565928
O           1.18908277647617   -0.26880718921340   -3.86951973371407
H           0.49919848606995   -0.50774161264257   -3.22002103705828
H           1.20727922144690   -0.97155406428680   -4.52329370467034
O          -1.58864554536327    1.69045946947205    0.20654479770892
H          -0.72781705171093    1.56629724758993   -0.22926076057935
H          -2.11205962082077    0.91529967525569   -0.04542075196492
H          -1.30470734245578    1.52559786151962    1.88799270923208
N           1.48984670114860    1.03045221388528    1.86127347238369
H           1.65136474518192    0.01592956243438    1.74805821937035
H           2.24953423295901    1.50924341972020    2.33099141327855
H           1.36206523512985    1.32461519768266    0.86060463208762
