    26
        -50.46122214  Gyration_radius:  2.40363966294 Dipole_moment: 8.892
 S           1.74834548409037    0.08118266218805    0.01433857872289
O           2.21853447460988    0.12820656581464    1.37016103085113
O           0.98675570511864    1.26468292712507   -0.37459129155318
O           0.73196719092139   -1.14341514996091   -0.10787910013913
O           2.74852835055318   -0.26244107164990   -0.99460380735261
H           1.91778825623914   -0.72164731981580   -2.05838991050404
H           0.14271669853668   -1.17185480887934    0.68313554890275
O          -0.92303763249206   -1.23581886599685    1.93982614575543
H          -0.77739731113674   -2.00901015105742    2.48635416284113
O          -1.00418052442407    2.25651091821132    1.11903832968702
H          -0.21643355785319    2.11062987202848    0.56325566745608
H          -1.68590206855927    1.69322323407067    0.73021634832412
O          -2.47851725124553   -0.00907604731942    0.04342184164026
H          -1.99437017364148   -0.52109899527792    0.71481254329102
H          -3.41108691751538   -0.09867729827349    0.24471071793950
O          -0.77333789011643    0.52493812931007   -2.12629492550900
H          -1.48296897611529    0.22733389936590   -1.53649637652325
H          -0.14016293997848    0.98359561222444   -1.52048292630666
O           0.20056270417418    0.77423814452195    3.00443716515690
H           1.06281055308970    0.64561629721984    2.55842404929055
H          -0.24626183370069    1.49549630000577    2.50869972733493
H          -0.53288473073393   -0.44382377422492    2.45975619225892
N           1.16353689607609   -1.07745371465790   -2.79154518128124
H           1.48891030917652   -0.95019200106528   -3.74468138829268
H           0.28054981076303   -0.48574444305911   -2.59192173738628
H           0.97553537416380   -2.05540093084752   -2.59370139460345
