    26
        -50.46122214  Gyration_radius:  2.40363735134 Dipole_moment: 8.892
 S           0.30438534203734   -1.44577331245879   -0.93839411274827
O           0.22818233450719   -0.15868992512295   -1.62364132679891
O          -0.90217324714616   -2.21713164902972   -1.04215745096667
O           0.53149683379984   -1.09936142950052    0.60304236921636
O           1.54118571406501   -2.15125703577326   -1.26857738616157
H           2.50467530330351   -1.34478526846932   -0.59482168581385
H          -0.32553581025922   -0.84438895690439    1.02042581674514
O          -1.70746600596001   -0.33816247477154    1.76419022927387
H          -2.00311327564013   -0.96672368894005    2.42390994921612
O           1.73472951576688    1.50816141676687   -0.33309000394889
H           1.11290335591054    1.80298720832608    0.34985474908850
H           1.16744031739435    1.00183381827219   -0.96562600921359
O          -0.51859745096044    2.07849382697511    1.24733615508100
H          -0.86746334278679    2.76809573050256    1.81388085679514
H          -0.93282454732002    1.24436876754182    1.53014550871112
O          -1.82301491232968    1.53342378198381   -1.29527133072958
H          -1.44458535378975    1.97070811314209   -0.52145452808338
H          -1.10680345576359    0.96407742300025   -1.63232393033656
O          -3.00503141007093   -0.69799422462794   -0.38593739209827
H          -2.38282699801130   -1.35457009750826   -0.76105405442359
H          -2.32416699858518   -0.46477161206429    0.95582713647975
H          -2.80277824543458    0.14712202897935   -0.84473260240587
N           3.14341050890527   -0.65296308160890   -0.00626100635926
H           2.63441629627094    0.30030216839456   -0.04921639853925
H           4.07827507872973   -0.59341190760521   -0.39742820162264
H           3.16528044336787   -0.98958961949828    0.95137463964217
