    26
        -50.45363473  Gyration_radius:  2.44717461821 Dipole_moment: 4.271
 S           0.20180810091696   -0.76018825323361   -1.17795976780708
O           0.87466168836329   -1.86166200893422   -0.56307602536747
O           0.83340622810523    0.51778257871966   -0.94377705847319
O          -1.25926435375495   -0.69778766053359   -0.64796907802318
O          -0.00762469021614   -0.99038333622209   -2.66150753930137
H          -0.77139916723103   -0.34438348213793   -2.94878256272959
H          -1.21220179383231   -0.88617902092364    0.34764570244579
O          -0.80553972525383   -1.15226565036127    1.80543471265029
H          -0.33215723396976   -1.98599858947091    1.74740303692367
O          -1.11289567062350    2.33037141842061   -1.35196009396360
H          -0.24718445983151    1.90001253573315   -1.25958153442898
H          -1.50511008368206    2.27979707479869   -0.46300536437510
O          -1.92574161071244    0.57089881917614   -3.08976003250394
H          -1.68731083119491    1.35128225247819   -2.50855690206862
H          -2.65667673181677    0.13084166363675   -2.64750928978567
O          -1.60873354796303    1.77543391319141    1.32256334808060
H          -0.70715628709041    1.76706140376800    1.66473465322156
H          -2.01744678667582    0.96013766544372    1.62194753744102
O           1.05540423687709    0.66437653775388    1.72754661171304
H          -0.10240037939807   -0.44760546884594    1.92217847019961
H           1.83816922781356    0.08864289758997    1.88730657435125
H           1.06115859287115    0.79033365272117    0.75996423998721
N           2.89218659735232   -1.29869977668955    1.50579767229699
H           3.76693606626922   -0.97200513167190    1.11365801936490
H           2.32842053391724   -1.64484751582197    0.73012063739155
H           3.10669207073742   -2.08496651867740    2.10714401284894
