    26
        -50.45875098  Gyration_radius:  2.52056734208 Dipole_moment: 10.930
 S           0.58751146048148    0.28953640699814   -0.89715805377923
O           0.66324582060405    1.22275451814681    0.22604817540001
O          -0.59830712710551    0.45604535953327   -1.68792949472219
O           0.57954338055347   -1.15251406004121   -0.25400442559702
O           1.83255595512152    0.29070837771738   -1.67131727427766
H           2.72734335261712   -0.38588526113799   -0.85877087207790
H          -0.28926272380140   -1.25550582930231    0.23158295038390
O          -1.63044239457468   -1.29441893234712    1.07338679455283
H          -1.53384063321969   -1.65670367979678    1.95556909245486
O           2.57281424159793    0.67640215190183    1.87280803298984
H           1.77656211724756    0.91370637057193    1.32308083502706
H           2.97667191868322    1.51210901430081    2.11363504254172
O          -2.87762274985603   -1.13005630640774   -1.49601571903729
H          -2.05272179987881   -0.71147605657133   -1.78463503625279
H          -2.69673114901495   -1.45511365042951   -0.60717397396401
O          -3.06151207702880    1.62701121129385   -1.09772160543546
H          -2.19873507803668    1.57527779156563   -1.53243747299613
H          -3.44832531227869    0.75008215017720   -1.25436476288788
O          -1.83073847215108    1.24869033382937    1.24319952145165
H          -1.80062122496203   -0.29927370321042    1.19475399996362
H          -0.92319282526233    1.43053808843122    0.93920436265333
H          -2.41087452569643    1.51335830873934    0.49028474797241
N           3.31564698047550   -0.93516346486148   -0.06751995534922
H           4.28895816618707   -1.06789802764049   -0.32171061441714
H           2.83762343953428   -1.82281981404660    0.06697883456285
H           3.19445126975342   -0.33939129742327    0.80022687084392
