    26
        -50.46122214  Gyration_radius:  2.40363847207 Dipole_moment: 8.892
 S           1.15093773275963   -0.46139964094920    1.23530758952817
O           0.49346377033074   -1.25327840466846    2.23640803938328
O           0.67746289273548    0.91899108736698    1.18741506713867
O           0.79895185420272   -1.08633145866868   -0.19058752834277
O           2.61129212834317   -0.52274011262976    1.23304408677365
H           2.90082349896466   -0.10533631251919   -0.09910323278422
H          -0.15500404893307   -1.33674760947471   -0.22199450060735
O          -1.75405395211369   -1.71126887729211   -0.37004450881209
H          -1.88981784182752   -2.65733301781921   -0.43532447914023
O          -1.92496029372471    1.55172805796669    1.11314395838563
H          -1.99443733109903    1.49722858961771    0.15115614074482
H          -0.96975400621902    1.48264496778753    1.29624682869931
O           0.88688372087478    1.73620994366984   -1.26246434913503
H           0.04900776380774    1.40654268146112   -1.62202441156698
H           0.79027122896716    1.61015287019123   -0.28621700355525
O          -1.69819684507023    0.70732351254857   -1.66156724584494
H          -1.74719275481764   -0.19195134657166   -1.29246682429045
H          -2.45150218758901    0.80971711241528   -2.24489833310809
O          -2.15789896638709   -0.96342902492448    2.02031826133714
H          -2.25072156654674    0.00436002954965    1.87751672201322
H          -2.02004807125314   -1.45211710300197    0.58488097683192
H          -1.23407819459812   -1.09659799879356    2.31656629795412
N           2.98585344899732    0.20459158914966   -1.16198541772744
H           2.13054705422511    0.84347379232089   -1.33493056730308
H           2.91452575633083   -0.63022693553230   -1.73543359597008
H           3.85764519964020    0.69579360879884   -1.33296196060082
