    26
        -50.45875096  Gyration_radius:  2.52051793256 Dipole_moment: 10.929
 S           1.06173603029325    0.26229396204345    0.19354129793766
O           0.98432684075476   -0.19389312730176    1.55190035028628
O           0.17957763011294    1.39541019147456   -0.08198365909082
O           0.58193948351198   -0.89549354149711   -0.76692785088978
O           2.42524518712710    0.52666155099768   -0.27593451001644
H           2.32591655496222    0.42281612955945   -1.65369259583918
H          -0.32268539852049   -1.18542183861212   -0.45255098310880
O          -1.79659137586204   -1.50244974730200    0.03304747113502
H          -2.43650975026906   -1.59060065907064   -0.67515148909747
O          -0.99113583401737    0.12540568406746    3.49647629753342
H          -1.07110218507076   -0.84248117826247    3.48821196341639
H          -0.12647475257831    0.28488499205133    3.09289397601065
O          -0.48350122875179   -2.39666010353040    2.41217923805554
H          -1.07938244742226   -2.41898090311144    1.65531313588589
H           0.22820917790030   -1.79117136220691    2.15560632913029
O           0.01233992090912    1.96542368491465   -2.59259871839177
H           0.03790353709238    2.92161833580154   -2.66040335773505
H          -0.02843525109947    1.76824226285232   -1.61691849542205
O          -2.12448202523544    0.76686535408927    1.16384388646774
H          -1.34465293586978    1.18417780444815    0.75547413100404
H          -2.02374475420172   -0.63426907303377    0.51135938534352
H          -1.87391439950727    0.62422392231043    2.10742208686371
N           2.05755117018254    0.31995441939154   -2.74512486527949
H           2.84554290301646    0.48806703696715   -3.36187623534457
H           1.27203170277911    1.01781170102039   -2.88154472871651
H           1.69029217977515   -0.62243550801531   -2.85256205013462
