    26
        -50.45083937  Gyration_radius:  2.51688893921 Dipole_moment: 5.232
 S          -0.05501844050979   -1.15070870685136   -0.84659157919895
O           1.07289756813971   -0.25012916468420   -0.86051995278855
O          -1.09628124758129   -0.81223195372498   -1.76236862794800
O          -0.62917370111136   -1.18262561391832    0.60469088256722
O           0.38530750693243   -2.58901721807006   -1.03751367722459
H           0.90502518065050   -2.86345526235860   -0.18281896912308
H          -0.97603922931537   -0.25899576556741    0.80236497197343
O          -1.42378949605871    1.22965495816309    0.96989833035271
H          -2.32320006028183    1.35208671025846    0.66036202381788
O           2.36383035235481   -0.66033642451278    1.47497141425402
H           2.09436625891147   -0.36612413486369    0.58860327055654
H           1.80873623919769   -0.16043408776786    2.10003556011084
O           0.44287990426088    0.61868620736895    3.00142542569978
H          -0.16933042303069    1.05530576060803    2.39485885678277
H          -0.09021446626211    0.09695005430831    3.60316106799071
O           1.50520851345872   -3.07979844172250    1.15436199935008
H           0.76418640264087   -3.13380322035263    1.76297909853548
H           1.95978860070558   -2.20364090616741    1.34627833076089
O           0.08385069085000    2.27946801982887   -0.79344559275415
H          -0.82947864249001    1.73995765675599    0.31394935995111
H           0.67463424428127    1.51414718844172   -0.88994618403374
H          -0.45218749467705    2.28963291874770   -1.62392640820338
N          -1.39421063973706    1.79370667875947   -2.99721877447902
H          -1.40055386951648    0.81093715146983   -2.72608132616652
H          -0.87248287243717    1.86375153543605   -3.86211959261771
H          -2.34875085938587    2.06701607041623   -3.19538991816974
