    26
        -50.46122214  Gyration_radius:  2.40364095924 Dipole_moment: 8.892
 S           1.11392706730306   -0.24690391046538   -1.32728919244681
O           1.37805100921375    0.82324068166554   -0.36969865013814
O           0.51991453952680    0.21766188232746   -2.54911989237423
O           0.06573416221125   -1.21493381881175   -0.61188105635978
O           2.27319838316826   -1.12450741908278   -1.47665113699860
H           2.28017033107179   -1.78626779518155   -0.21384594791786
H          -0.84215304146075   -0.83358148153351   -0.67537671020254
O          -2.37298942993910   -0.22064316102787   -0.67996111445324
H          -2.96059818883639   -0.74425653034627   -1.22610221117979
O           1.15161306100261   -0.17842368125126    2.00916340740884
H           1.32730949588276    0.34753914052689    1.19015137689918
H           0.19415595166780   -0.09458139713300    2.13662033989356
O          -0.46084600551056    2.65611065122793    0.29172393923536
H          -0.85424807910387    2.12578770059927    0.99685355526262
H           0.34305007919229    2.16794444958364    0.03450178227964
O          -1.57879644951219    0.47024159492649    1.85237079196604
H          -2.33138899224833    0.63850407579274    2.42115968459251
H          -1.93293540870978    0.16746765248913    0.99782873098605
O          -1.56989965668186    1.79451996333226   -1.99539210100507
H          -2.15650952866264    0.62093081043337   -1.22281573772881
H          -1.22521570416483    2.34626301662707   -1.25891809165076
H          -0.78591388231370    1.34938104876612   -2.37770251907331
N           2.15572087608677   -2.24415479659640    0.79007472947691
H           3.04739807763504   -2.54752490737919    1.16876227543672
H           1.51018869159771   -3.02244996955762    0.69842356510880
H           1.71106266158426   -1.46736377993131    1.39712017298182
