    26
        -50.45723725  Gyration_radius:  2.47397751243 Dipole_moment: 4.258
 S           0.95726694859143   -0.02611290537795    0.35363961592668
O           0.56512227336452   -0.25696615947701    1.72544639177638
O           0.43211290847367    1.27998285413865   -0.12018788424080
O           0.46344319114536   -1.08770221780335   -0.53434841537692
O           2.47705890369466    0.02513662045382    0.27048812935433
H           2.74911717607372    0.17888058356446   -0.73299930206521
H          -1.10847195572910   -1.20618612407866   -0.42683483210387
O          -2.10042019704907   -1.11084285243466   -0.35344258866663
H          -2.44897502180998   -1.26737215941821   -1.23352930159717
O          -1.55952132591082    0.80985443914782    3.01390266460990
H          -1.85119560258294   -0.13097672491833    3.04379666371578
H          -0.59428067419515    0.72896874920478    2.93097337563271
O          -1.62988478397388   -1.76803867246517    2.38914241047418
H          -0.70707994990009   -1.52562766526669    2.20080680190205
H          -2.04491387681178   -1.89365150997711    1.52896807528264
O           0.32236635848249    0.39680084278521   -2.73980207175486
H           0.33469192168563   -0.30739234291643   -2.06343563838368
H           0.15797577304512    1.19884444589981   -2.23118318427058
O          -1.92011790530299    1.29322066142422    0.58516554313260
H          -0.88725384181833    1.39677338926548    0.26928988817683
H          -2.17582960806572    0.38737474096633    0.22094165586843
H          -1.85849462626746    1.18003121691157    1.64431703853119
N           3.07557974320376    0.39230507106617   -2.18098163246460
H           3.61793266876239   -0.37141661837322   -2.56140040309545
H           3.56789574001691    1.25976628521010   -2.34597865258569
H           2.16587575290192    0.42434604252089   -2.65275432778980
