    26
        -50.45129015  Gyration_radius:  2.61573896572 Dipole_moment: 4.150
 S           0.52394424058432   -0.34725974567791   -1.30899292481733
O          -0.48488088892101    0.66984551974855   -1.30682916291272
O           0.19242692640612   -1.59301574744399   -0.67698636840288
O           1.79660033429957    0.20251407471218   -0.62373034920191
O           0.96961079474549   -0.61350438514297   -2.75541850304163
H           1.56324588219724   -1.45323344204733   -2.69671679305964
H           1.66481513064314    1.20209990963085   -0.43708522181246
O          -0.13094964763137    1.82056376540853    2.04615376038793
H           0.21765592159523    2.00963054826696    2.91830160710176
O          -2.42644583601393    1.63619871554202    0.40504814234100
H          -1.76833308030277    1.94030520244200    1.04586352946033
H          -1.91182009986432    1.28157065242789   -0.33539539122065
O          -3.11167506497994   -0.59699162724677    1.72929752708671
H          -3.67749361558180   -0.34268159435859    2.45950206884704
H          -3.01159659684924    0.20357495033073    1.16546278894884
O           1.12128533487813    2.59391224622835   -0.17014878012041
H           0.38950306023380    2.56044847110111   -0.79815256627671
H           0.70912923971051    2.43625259144667    0.71231635656669
O          -0.41012779925642   -0.76287390119976    1.85812857864123
H          -1.38573341282692   -0.85683248744740    1.89451297765847
H          -0.15593615822829   -1.14806805580716    1.00524846929032
H          -0.18279314659707    0.82218370395388    1.97937417083631
N           2.30119400071831   -2.71886552988506   -2.17395544675205
H           2.29797154631923   -3.56738287710352   -2.72424182559402
H           1.67326046753974   -2.82699680526127   -1.38189270987026
H           3.23714246704096   -2.55139414243693   -1.82966391411882
