    26
        -50.46485779  Gyration_radius:  2.56568561969 Dipole_moment: 4.119
 S          -0.10679881756113   -0.77644946639165   -0.49082135944768
O           0.31069567008966   -0.60360968802891   -1.97400893937990
O          -1.00371150623316   -1.92299124245386   -0.41728875169856
O           1.10373940437314   -0.99333672499431    0.29488247441352
O          -0.78533989863903    0.45101869539257   -0.06402982643084
O          -3.23881186994678    0.45992929439862    0.88677150708073
H          -2.33406141812371    0.57602654347635    0.50970922668208
H          -3.83210128817021    0.42614564418048    0.13476821579419
O           3.12639019639543   -0.37161938432894   -1.30310862461116
H           2.49530008605768   -0.65528392775838   -0.60958916014158
H           2.74667013424622   -0.69444067839915   -2.12460546562858
O           2.78421802018643    2.27772806621727   -1.21132320182886
H           3.00631534507365    1.31788924569689   -1.17029283599675
H           3.45192001757836    2.68441417960752   -1.76551127069201
O           0.26662521228052    1.93311851559454   -2.02213465057137
H           0.31093880534069    0.39758143910024   -2.14424727098973
H          -0.23683997335696    1.82793917081326   -1.19978958445575
H           1.17688223002391    2.19415656236126   -1.74831272767280
O           0.14491876036030   -0.34284925035742    2.63501746913456
H          -0.03309037216694    0.59109212227287    2.49615280121387
H          -1.20264169832923   -1.19170494341302    2.40364172769264
H           0.65143430655293   -0.62200154669350    1.83494164789980
N          -2.02570285591367   -1.65902313323440    1.92302783266863
H          -1.64264428560156   -1.93920675282801    0.95758583719599
H          -2.73868506584266   -0.92039565258279    1.72178249599230
H          -2.39561913869883   -2.44412708766487    2.44678244378816
