    26
        -50.45899772  Gyration_radius:  2.47151641328 Dipole_moment: 5.014
 S           0.89006064809475   -0.57194889990789   -0.07980140613167
O           0.47572978560361   -0.45383317855509    1.31023731995099
O          -0.09462323274199    0.08590961285807   -0.96710694836961
O           2.18303183286613    0.31382978443572   -0.18371437165876
O           1.18503463793850   -1.90941243988747   -0.51497737655188
O          -1.52798867805670   -2.24867253272283   -0.80321655712016
H          -1.39768732998731   -1.37909459450728   -1.20207930535059
H          -0.62749174949027   -2.57536498836138   -0.66974576750934
O          -2.08815283087114   -1.20596722208384    1.63547366497873
H          -2.15282879736716   -1.72809028444992    0.81171586746859
H          -1.13531041964828   -1.02318100751388    1.72387229521853
O          -2.91917257075723    1.21755805835927    1.35524267412100
H          -2.68876476243503    0.23824567301808    1.44404103378771
H          -2.98572544473131    1.55521125443514    2.25062640176439
O           0.91909899832095    2.05848303450603    1.77604151796908
H           0.81176790248299    1.07574612133298    1.79612409394469
H           1.78241483481275    2.20142216545139    1.37922464279720
O          -0.96961345791529    2.15058691305489    0.07266877487747
H          -0.24182811431724    2.28512482711958    0.78300481282845
H          -0.62820149476357    1.29644543983466   -0.45838168146629
H          -1.82967215704776    1.81880998000893    0.58213637459744
N           2.67108859588936   -0.64440046358858   -2.54736894830270
H           2.53985768672742    0.09530587980276   -1.09601885258278
H           3.54545400203897   -0.93742119682482   -2.96393626528621
H           2.20026689539653   -1.45973765853459   -2.16091686458374
H           2.08325519996124   -0.25555426726867   -3.27314511939445
