    26
        -50.45329872  Gyration_radius:  2.5032509298 Dipole_moment: 5.757
 S           1.35221569217822    0.55461917006064   -0.56507805972830
O           2.11976758977897    1.20190314250016    0.49814583061048
O           0.06141900792564    1.21210717431388   -0.74858143310480
O           1.15523590118268   -0.87120546114310   -0.26832384855463
O           2.16738175462041    0.66745354108175   -1.86164041970758
H           1.82464102639434   -0.09261186369097   -2.43242227613151
H           0.72670060254683   -1.23147144110078    1.16122149701758
O           0.46649432248354   -1.39636092526856    2.12193772540181
H           1.01822373049707   -2.12290675295063    2.41683846726009
O          -1.25475498654710    1.72296157296691    1.41913250067388
H          -1.79239950201249    0.90676321546898    1.52155513100226
H          -0.84213097987234    1.65272323809887    0.51620693668830
O           1.04530587579941   -1.35568286854034   -2.92531888776208
H           0.14791304817930   -0.97477086476322   -3.10820797155115
H           1.00274304727545   -1.67418459401640   -2.01233669214535
O          -2.20968440710408   -0.74845704583698    1.86430758630793
H          -1.33044472452464   -1.15915455236917    1.91923323567088
H          -2.68159546516000   -0.98384249112309    2.66480724104543
O           0.82813726229991    1.14191608293557    2.60219908179041
H          -0.13936793987717    1.50184692232034    2.18012929573535
H           0.72151096822838    0.14952733982704    2.65075357391646
H           1.47312063969513    1.26414125950077    1.77069176038194
N          -1.28442430144930   -0.03217832138735   -2.93129552574873
H          -0.91828014920372    0.51564315331634   -2.15078338747014
H          -2.14844928623113   -0.46157587171995   -2.62500653244495
H          -1.50927872708414    0.61279725151072   -3.67816481914739
