    26
        -50.45329871  Gyration_radius:  2.50310737989 Dipole_moment: 5.763
 S           1.35912418498831    0.59848722334761   -0.50047875843422
O           0.14576725667939    1.38581663358132   -0.30057130007182
O           1.55623303982457    0.29641410074805   -1.91764613039249
O           1.29450185856626   -0.63904059656826    0.28976250294320
O           2.57337517017472    1.40961466145571   -0.02480464113062
H           2.59699113979973    1.25146137897840    0.97296677985754
H           0.42088837551557   -1.77257501399733   -0.26557546101892
O          -0.15339055380394   -2.48020537254430   -0.69846956779145
H           0.35326288296876   -3.29224535296150   -0.64265854034211
O          -1.95344035419874    0.55327737449926   -1.56203469216086
H          -2.35378729327741   -0.05396562946444   -0.90105359271066
H          -1.22523497901420    1.02600169038016   -1.07534377351238
O           2.27337862072835    0.72330005489777    2.40885031541887
H           1.46190935733232    1.24780335475641    2.63353196118353
H           1.94231242326223   -0.09958914479397    2.02136738421599
O          -2.60125366456256   -1.46344424479230    0.09002028825876
H          -3.29583893507965   -2.09275021786506   -0.11074544345218
H          -1.75430662438095   -1.92689545541536   -0.02250537726053
O          -0.40664886948377   -0.92914222957015   -2.78051159848963
H          -0.36507196294508   -1.69271369295849   -2.13734116873207
H          -1.18766704809886   -0.25466668038035   -2.35652513494206
H           0.47608414258666   -0.38889413682056   -2.55430276657606
N          -0.06197553709315    2.03521916076864    2.46711106849978
H          -0.10939616023697    1.89552089817582    1.45637767168996
H          -0.08845627210397    3.03223923250853    2.63921815582305
H          -0.89736018819124    1.63097199394554    2.87136182908570
