    26
        -50.46862861  Gyration_radius:  2.47507700988 Dipole_moment: 4.022
 S           1.33374301231076   -0.42176613963390   -1.75782533379419
O           0.92520633264602    0.92903584872432   -1.33575723924032
O           0.21778511690661   -1.32754531287072   -1.74317928316335
O           2.50594730710323   -0.87293450037793   -1.03689063513793
O           1.79842155389218   -0.26692394594421   -3.26862405461786
H           2.71606083111896   -0.04251271058272   -3.15579977803104
H           1.90023263454790   -1.24908576564704    0.40572167146372
O           1.52980345624591   -1.37785542889041    1.31337517059317
H           1.95913371879372   -2.15892394608095    1.66678964002428
O          -1.16183193774992    1.62512124154456    1.85869508982817
H          -1.29979685352243    2.30795642855339    2.51524546129385
H          -0.17235243893349    1.57926799234032    1.69906102550701
O           1.35656734020625    1.37397532694392    1.27518454091890
H           1.58492572264863    0.47371333300638    1.55302335297576
H           1.33278291080508    1.32741640586299    0.29870648947287
O          -2.24426753751942   -1.38069865181116   -0.72567999373558
H          -2.01230893387416    0.10450524931922   -0.80347761915632
H          -1.43725411772435   -1.62386917477918   -1.21683490690309
O          -1.20963470840990   -1.22665131130293    1.72535334696676
H          -1.30863712787946   -0.29280528739219    1.95492219704001
H          -2.00595170529930   -1.52034926748288    0.22057816268379
H          -0.25792772680896   -1.36266409479726    1.57828350750867
N          -1.63186612013427    1.12771694280961   -0.77436008824037
H          -1.63409190890752    1.44942834790026    0.21238813648825
H          -2.16430630296441    1.74985832396161   -1.37112046739722
H          -0.62038250751488    1.07659007666881   -1.08777839337335
