    26
        -50.45129022  Gyration_radius:  2.61582279216 Dipole_moment: 4.152
 S           0.91095330884797   -0.33458825272737   -1.07911836879851
O          -0.03756860401391    0.58498373692683   -1.64135417200391
O           0.38092267642617   -1.45312034213414   -0.35783521395201
O           1.84778503685334    0.46899188824636   -0.14721717948297
O           1.84352581820670   -0.84519680637446   -2.18868788179092
H           2.05216574150052   -0.01355045969391   -2.75980245090546
H           1.96816187217095   -0.05182874442019    0.72764233456737
O          -0.44637037043029    0.17302354131576    2.70098761178397
H          -0.48214797019229    0.79749155112895    3.42672223007799
O           1.83051574949773   -0.96756459247641    1.93064265154927
H           1.48380925369941   -1.73483085144552    1.45936466176538
H           1.04384501713514   -0.55174564328458    2.35689403328799
O          -3.56633651017754   -0.26538791762802    0.48714548383908
H          -2.98176983594906   -1.01588683624097    0.73995288932570
H          -4.28455064119177   -0.25836551933382    1.12131522428908
O          -1.70445961200325   -1.98440891560335    1.37483750729620
H          -1.05550143434655   -1.96635643275717    0.65555019878892
H          -1.34048725320409   -1.40216523017782    2.05655811062993
O          -1.40636592262171    1.36699290034143    0.59363162058608
H          -0.77273146816570    0.66833672847304    1.89351320163072
H          -0.93574289808487    1.19185797944774   -0.23593307789308
H          -2.27117851190070    0.91579302176864    0.49093789891165
N           2.04341675552594    1.42539227002935   -3.34934575993551
H           2.72990585671315    2.05051953467352   -2.94870124249370
H           1.13135758424720    1.64193963714813   -2.95625822418466
H           2.01884634142619    1.55967375478559   -4.35144210692446
