    26
        -50.45899773  Gyration_radius:  2.47158425479 Dipole_moment: 5.016
 S          -0.51002042052524   -0.36803591660460    0.85435176070128
O          -0.64122466112334    1.07802333671074    0.75804481657801
O          -1.74258594917348   -1.07856174761264    1.05775683501418
O           0.23781473454510   -0.89477677626586   -0.30882898673439
O           0.44026872302890   -0.59808033765538    2.08374255188209
O          -1.55116260699123    1.82400036220045   -1.66250914492942
H          -1.34162128581792    1.73221416244129   -0.71549542149095
H          -1.93606471699912    0.95857916516739   -1.90373986703162
O          -2.15790983729839   -0.81810894108674   -1.64740907841260
H          -2.45699240630955   -0.94197163404267   -0.73593815280674
H          -1.23011469420489   -1.08395276484581   -1.62061730243726
O           1.77784067284774    1.85821904278262    1.27379176103565
H           2.02285777444856    1.31379544350582    2.02668020766745
H           0.80140160305997    1.73355471403928    1.18129771899563
O           0.84508136139900    2.13959243696693   -2.55780107749343
H          -0.12393462670773    2.01124011098248   -2.30375008273831
H           1.02974116813916    3.07236170046073   -2.43145203620906
O           2.06309926065769    0.64485357173060   -0.94551970402424
H           1.32325940630364   -0.08503656539864   -0.72382477374159
H           1.61400412520420    1.26375333906362   -1.66954134331308
H           2.11157905633506    1.19320589191996   -0.08007902684688
N          -0.09331453239526   -3.13890511173936    2.04501164825595
H          -0.27228489599546   -3.77895138058736    2.80804338767428
H          -0.98227115332004   -2.80491986642802    1.67898121702233
H           0.39061598719370   -1.58972286545642    2.23153156299481
H           0.38193790369921   -3.64236934025035    1.30727254038336
