    26
        -50.46862861  Gyration_radius:  2.47503588488 Dipole_moment: 4.022
 S           1.40243655703903   -1.25327473341951   -1.22827179672972
O           1.87789251964079   -1.14203058289976    0.12360565264939
O           0.81017094366495    0.01463373805458   -1.68768217686647
O           0.52314000982091   -2.37518876900738   -1.48420358849156
O           2.66887380508995   -1.48624948612506   -2.15791672304702
H           2.27694486941021   -1.95278067951107   -2.88852971327990
H          -0.59260259165068   -2.20677943414295   -0.33711838845583
O          -1.32141245142856   -2.02999630391309    0.30724519859402
H          -1.58944756688480   -2.88595741126676    0.64591631871491
O           1.56838661871352    0.53059136711759    2.17430956225542
H           1.25080483628995    1.44672741109619    1.02315234810168
H           1.87599401944499   -0.20950208885615    1.61812144756056
O          -1.85494796531402    0.08430220596943   -1.38070875175729
H          -1.97418405209699   -0.72115770823332   -0.85454851999130
H          -0.92051077111795    0.05050358354744   -1.66689278230759
O          -1.81021625223791    2.00999753425957    0.36192599947197
H          -1.90516347352661    1.29301036921404   -0.33333149799078
H          -2.54398626836182    2.61131466142386    0.23387017072944
O          -1.03713701735631   -0.02798928034169    2.20662806419628
H           0.64847140244558    0.28135202210089    2.42592328392121
H          -1.43557287565705    0.72136444250917    1.74375500853141
H          -1.11376234524294   -0.78400653216639    1.59961606851739
N           0.89738426691267    1.92755077874000    0.10851245972885
H           0.94251250541970    1.18915163864244   -0.65089605183798
H           1.45724032220289    2.73506357427842   -0.13882060432925
H          -0.10130907523632    2.17934967293767    0.23633902211443
