    26
        -50.46862860  Gyration_radius:  2.47496850122 Dipole_moment: 4.023
 S           1.32876900376163   -1.80006066841817   -0.19853136886257
O           1.71028097457377   -0.44118715940081   -0.61982227781468
O          -0.01051446533187   -2.11379672698632   -0.61538871038515
O           1.60678672625613   -2.01966425478040    1.20569884362673
O           2.30902468613442   -2.77351066973779   -0.98206980725219
H           3.04661608744081   -2.81298616446480   -0.38252952856782
H           0.41709555050519   -1.20846688221040    1.92357063274842
O          -0.25836562389014   -0.62331469097252    2.34672802666922
H          -0.56775325602174   -1.09352023086402    3.12290450112095
O          -2.14379244560466   -0.78618391304544   -1.50167938990612
H          -1.04674377295365    0.16748003354228   -1.89275217250454
H          -1.54452773399516   -1.50769061036943   -1.23323661434648
O          -0.51072183122736    2.68049322166151   -0.01581487432118
H          -0.43209811917979    3.62512932891187    0.11797265905812
H           0.21271342875339    2.25407689745968    0.53317880615046
O           1.31490282885156    1.38752739304540    1.30395768548036
H           0.82239788694193    0.84526898835256    1.93890324144466
H           1.63207378776529    0.74896265856143    0.63470772836545
O          -2.23561552564475    0.55565016216153    0.79895576610070
H          -2.41361376624624   -0.36415387472244   -0.65268511452835
H          -1.59771279050582    0.08376801852096    1.36139877635976
H          -1.82068457069091    1.40224235795711    0.58535114023577
N          -0.16711866691979    0.81085265855375   -1.96194614506218
H           0.62620579831725    0.27814940892186   -1.50290596285528
H          -0.33865345627486    1.66154012923877   -1.39257111614475
H           0.06104925517860    1.04339458908803   -2.92139470479595
