    26
        -50.46862862  Gyration_radius:  2.47502406167 Dipole_moment: 4.019
 S           1.88813746802407   -1.21470435008088   -0.07316109849117
O           1.60205656931137   -0.64861359548138   -1.36302287522371
O           0.65246850558915   -1.64891252502461    0.60060825413824
O           2.70748662327048   -0.39398165775856    0.79434627723365
O           2.72427896891552   -2.54339702915454   -0.31359218240800
H           3.21054489490709   -2.60400521338186    0.50192292074638
H           1.92457267369137    1.01131498792452    0.77938038485228
O           1.37749368696053    1.83283238289778    0.83925430135364
H           1.99700143374892    2.56460087863982    0.84054188489245
O          -2.49751493881087    0.59112311450893    0.92806075994022
H          -1.69807425984626    0.46489785523736    1.52087303903828
H          -3.24647057166106    0.72966601085096    1.50792994577885
O          -0.53273668821274    0.26836598318461   -2.66727968402836
H           0.37889391349201   -0.00838674605515   -2.45740175240300
H          -1.19025748091722   -0.66538880179405   -1.68673082627737
O          -0.31559148106293    0.20394691700790    2.28317338726426
H           0.07626827050308   -0.56198257912160    1.81834697811783
H           0.25781896032302    0.94841228820034    2.04487713284661
O          -0.83821272800228    2.14525633625348   -0.80025855892352
H          -1.53667800257168    1.79055598481411   -0.23384125424721
H          -0.01895281666098    2.08192033578321   -0.27993653780173
H          -0.65160399681226    1.11290291495832   -2.17297496936926
N          -1.51732582430031   -1.24676082442290   -0.82209991815748
H          -0.63909351985088   -1.49594275405896   -0.28310990231343
H          -2.02404465910578   -2.08131651630308   -1.09310918427940
H          -2.09046501090960   -0.63240338761804   -0.21279651227435
