    26
        -50.47176447  Gyration_radius:  2.45098225763 Dipole_moment: 4.282
 S           1.37703871761715   -0.47426155876356    0.37929662939269
O           1.80876236224917    0.80423860623940   -0.13234282343637
O           0.93681202387548   -1.38725320890345   -0.66192748690861
O           0.31733884073991   -0.29529490649961    1.39445719948092
O           2.57169611626911   -1.17498253668101    1.09620383688334
H           2.72265661142910   -0.62720721899264    1.89011636879435
H          -0.35182657093368    1.13738691432928    0.70632975882690
O          -0.76110298391705    1.90806016680703    0.27197137584229
H          -0.01796216070062    2.48443240137848    0.07448060504675
O           2.11551714099731    0.33692621519246    3.22445927165916
H           1.96144085316198   -0.11077024888918    4.05944058532706
H           1.28818087267162    0.26979717036769    2.71113348959378
O           1.10807468843712    0.63154194493342   -2.68620052037048
H           1.27360759797996   -0.30791352453518   -2.79585968613229
H           1.45311807227640    0.83139961791105   -1.79149997573885
O          -2.32694521519849   -0.68873479896269    1.32426385916973
H          -1.36889100972895   -0.65204777968147    1.51975881098637
H          -2.62198590678660    0.22595185420436    1.34322258551357
O          -1.47896998972420    1.04713284929027   -2.19714289885230
H          -0.56476341377762    1.00115641311080   -2.56309558652705
H          -1.69053659531593   -0.37805131871302   -1.70364735066367
H          -1.37354039852508    1.51976982825629   -1.34581716053719
N          -1.63634121177247   -1.32514962618931   -1.17758582602958
H          -2.03943171938582   -2.09056609735340   -1.70530352111958
H          -2.09483154334815   -1.20437386265616   -0.24185146947704
H          -0.60711516856377   -1.48118731519415   -0.99286006072085
