    26
        -50.46862864  Gyration_radius:  2.47506519097 Dipole_moment: 4.020
 S          -0.58532533790801   -0.25803542498929    2.15349689377784
O          -0.67820597411565    1.01545143731021    1.41925711797468
O           0.66371807265194   -0.91784976336087    1.88797763612159
O          -1.76760710436565   -1.07184682693004    1.96008481001567
O          -0.59291578690431    0.14194024465062    3.69047139937625
H          -1.52695485938843    0.15776151012369    3.87077431258830
H          -1.55427614888189   -1.64214300836948    0.47096166750365
O          -1.45707963700896   -1.89981696566114   -0.47875175487349
H          -1.76208056375544   -2.80673555654466   -0.54008288729059
O           2.63019985034163   -0.73581830533001    0.09938333983331
H           2.06673192028217    0.65817894634340    0.02971572534830
H           2.09889297580836   -1.00925344785230    0.87051917424777
O           0.09341262002433    1.35430312429021   -2.36729881009494
H          -0.75559957667586    1.16051615139868   -1.86914885575022
H          -0.15156750511521    1.88485681256305   -3.12551338990684
O          -1.97984759648555    0.77227536805880   -0.91490027609892
H          -1.64964677725013    0.95197189738291   -0.01216525515243
H          -2.04701316658683   -0.19390419274520   -0.95796348906792
O           0.89635650103957   -1.33357175345390   -1.83399254751200
H           0.10084681983461   -1.60920837429216   -1.34707949677224
H           0.68233726121331   -0.47376779583047   -2.22061957633966
H           2.15891867546342   -1.12685536163855   -0.67310409240527
N           1.45069153548126    1.55860033098181   -0.01827708174343
H           1.07194536407502    1.64481816262542   -0.98069609499963
H           1.96464977194921    2.38756524377960    0.25623486022617
H           0.62941866629391    1.39056755749100    0.63071666100127
