    26
        -50.46122197  Gyration_radius:  2.40366764172 Dipole_moment: 8.896
 S           1.62190052771898    0.49966807790306   -0.43070867823852
O           1.28521506674688    0.31807122291338    0.97841982652376
O           1.61116737347680    1.87445322683491   -0.84480272796793
O           0.48323407250525   -0.26505717660962   -1.24704078552738
O           2.81236580271610   -0.26569658760632   -0.79583423535682
H           2.31162996142628   -1.59896802313186   -0.73308781269582
H          -0.33097628149513    0.29069729337703   -1.29029375668091
O          -1.74663911106396    1.13436126351400   -1.34078045995484
H          -1.95049695037350    1.42671867445735   -2.22996184175385
O          -0.84968508816413    1.46786867880314    2.11800243287420
H          -1.45956506032503    0.75616369558467    1.88399080619018
H           0.03273983488449    1.12264049648034    1.88829806037727
O           0.10592246229362   -1.97698823827280    1.21367527222926
H           0.57720073660221   -1.11305463829758    1.31297790880883
H          -0.80501931947034   -1.72046655021608    1.00318467479854
O          -2.29867821344807   -0.61592928834487    0.69665727996033
H          -2.17984568327276   -0.03818803315048   -0.07764791144123
H          -3.24274002394746   -0.70470066631876    0.83490228844634
O          -0.66643227070741    3.03473299945648   -0.05345831871909
H          -0.76787960577327    2.69321081659724    0.86232832890026
H           0.25135389172650    2.81454050793918   -0.31467818566802
H          -1.40313330548238    1.96103900852303   -0.84229737975639
N           1.79045821623455   -2.57779014990015   -0.67404679801962
H           2.43386316423465   -3.32269480852342   -0.42582042455669
H           1.35454398464227   -2.75206086765880   -1.57430259347898
H           1.02949581833419   -2.44257095445060    0.08232501069073
