    26
        -50.46122209  Gyration_radius:  2.4036427753 Dipole_moment: 8.890
 S           1.54799509798301    0.36841380461569   -0.73012458350302
O           1.49409701453158    0.03557849273820    0.69056460847819
O           1.64156897227001    1.77927643732653   -0.98002249566360
O           0.16775145767859   -0.14588908909392   -1.34494468961577
O           2.51646489895515   -0.46849539765177   -1.43585218302307
H           1.85994670305742   -1.73341867861464   -1.40476941607724
H          -0.55156127127724    0.49892137098488   -1.14356649096695
O          -1.81412278414713    1.49537854674411   -0.78158646050706
H          -2.15753065990178    1.92759438012241   -1.56451609808657
O          -0.17163204861805    1.25116342427642    2.40111849532037
H          -0.91025108956474    0.65111412451164    2.23475047850833
H           0.58587525199824    0.84371770327777    1.94191659634598
O           0.08156812872877   -2.12266372660672    0.93748831586576
H           0.67909341263803   -1.33888297670688    1.02050619131914
H          -0.80831831541694   -1.73910663428643    0.96678075319611
O          -2.16410240848810   -0.44215948427136    1.12708121478658
H          -3.06046658831659   -0.44103867257664    1.46590975199386
H          -2.13153400755101    0.21814848788769    0.41270258817705
O          -0.23357533156597    3.06873155425303    0.42734347369750
H          -1.26176014701381    2.20241688596158   -0.28666917453346
H          -0.18649297727069    2.61895273428146    1.29976229233623
H           0.56878392516586    2.78485727688325   -0.05705915286360
N           1.23251149141091   -2.64705199768554   -1.33471566527774
H           0.59783163710060   -2.64928285069936   -2.12715799661917
H           0.67329682159065   -2.53079075467399   -0.41652763023044
H           1.80456280608611   -3.48548494101839   -1.31841271305761
