    26
        -50.47176447  Gyration_radius:  2.45102278978 Dipole_moment: 4.281
 S          -0.30362371776801   -0.07529969805909    1.47237234898956
O          -1.05809012065015    1.06867386054857    0.98911330158176
O           1.10327902100968    0.20126994990767    1.63633650381613
O          -0.50243503621978   -1.24065080517631    0.58469366695160
O          -0.92169942623685   -0.45233635410384    2.85361326207977
H          -0.52005245972043   -1.31758647634337    3.06141942787015
H           0.90449297069069   -0.97783620687259   -0.37721507671951
O           1.66601925053228   -0.78123815172331   -0.95306960926706
H           2.38482069341713   -0.61393026625076   -0.33762988236820
O           1.31330547273634    2.61108170817040    0.54448222038422
H           1.39114203234683    1.75035545714757    1.00559336904360
H           0.45302094212164    2.94267822683389    0.81301159725471
O           0.05403565455759   -2.89926976163112    2.56478249520324
H          -0.04885117389485   -2.50226352513174    1.67916434209685
H          -0.56587467197088   -3.63041296198404    2.61518395959660
O          -1.30995288521990   -1.44906274224783   -1.95635764682373
H          -0.47882692831175   -1.70763724766505   -2.36435124518384
H          -1.15271820759612   -1.51473810706120   -0.99283866343269
O           1.19291178086641    1.69350252232418   -1.95510203242084
H           1.37081477147704    2.18257068782719   -1.11786024576287
H           1.50250823649428    0.78253408720072   -1.77189305076200
H          -0.31531960450932    1.49712062489124   -1.88739609419142
N          -1.32431957176551    1.20204300706673   -1.61916283220111
H          -2.02878410613163    1.82343069559713   -1.99924235659787
H          -1.34041606439220    1.19816692516443   -0.56211694806123
H          -1.46538688187266    0.20883454156917   -1.92553078106554
