    26
        -50.47176451  Gyration_radius:  2.45097986755 Dipole_moment: 4.284
 S           0.80621948186704    1.26854927820727   -0.08169821337185
O           1.67146085765148    0.31382740111299    0.59016385533188
O          -0.21646479530790    1.81158806818188    0.77972292134675
O           0.20061413503609    0.66180773128191   -1.28617193064273
O           1.73189649296363    2.42173320029665   -0.57690868674212
H           1.15855448923604    2.94446976039840   -1.16953497660166
H          -1.26864079799120    0.17636140679727   -0.52523673030386
O          -2.06543591382389   -0.14967229042932   -0.06808518920415
H          -2.36852802768208    0.60894115184354    0.43797572864452
O           0.05728365584564    0.31676149707885    2.95549781030032
H          -0.14187679300572    0.96552034644953    2.24916405053488
H           1.01005166421755    0.20642643437572    2.90899800599965
O          -0.19124589699157   -1.88065616954730   -2.01740056825711
H           0.03014862578467   -0.93120477647437   -1.93424591920671
H          -1.14731364029753   -1.92411105104797   -1.92724641011588
O          -0.09841032756861    3.04393500747871   -2.38951129434837
H           0.17766163478883    3.05891723734575   -3.30872731945655
H          -0.21366126996271    2.10625551961201   -2.14450310491816
O          -1.15504150207576   -1.80001276379463    1.88149445147106
H           0.07339299508789   -2.18186773264894    1.06648798009956
H          -0.79833207504002   -1.08876574736369    2.46354214295193
H          -1.67767571851324   -1.31908629965461    1.20713274889966
N           0.92251129706292   -2.19440799328564    0.39148128652652
H           1.59538815693450   -2.91646673626920    0.62106494597490
H           1.34896369587688   -1.22975671900016    0.46427844804368
H           0.55847957592116   -2.28908574092313   -0.58773402293438
