    26
        -50.46122197  Gyration_radius:  2.40363864568 Dipole_moment: 8.895
 S           1.70625772246863   -0.26045689943498    0.29480574899324
O           2.02422468682015    0.09760867299607    1.64839221554504
O           1.29137604275699    0.87699073524432   -0.52132951177481
O           0.44971235250706   -1.24403977378043    0.33218137994224
O           2.70093701021519   -1.07721643628012   -0.39782706801966
H           1.90613188901113   -1.66480360418783   -1.42536205125023
H          -0.21360106902560   -0.91794990488908    0.98593642950564
O          -1.39604334765419   -0.39294759870300    2.00784004953264
H          -1.49897399727921   -0.97976464669576    2.75802101289089
O          -0.55886145817730    2.64037471496220    0.28233169448486
H          -1.30763179398638    2.13057908859545   -0.05331631198462
H           0.22799956120286    2.18428123178198   -0.06902067488033
O          -0.38904937676635    0.00321247276233   -2.28932339410637
H           0.26400376268326    0.48965653925361   -1.72788802218057
H          -1.20971218787446    0.04128040591725   -1.77444789635014
O          -2.39965647505051    0.48892641496354   -0.38679428788015
H          -3.34296588590904    0.64833763589008   -0.33304646714534
H          -2.12670188144459    0.11718585555363    0.47034281687683
O           0.04872071967067    1.58317100898060    2.67349498662439
H          -0.15775036564847    2.19610565467983    1.93375525775111
H          -0.88862036367187    0.42617527954994    2.35629725292374
H           0.89957057497242    1.16145947766615    2.43433278390436
N           1.17302073666141   -2.07101271931264   -2.15373882879146
H           1.62024310552975   -2.30416599677885   -3.03467657734254
H           0.43915872291816   -1.28615851115394   -2.27698557748864
H           0.73821133508731   -2.88682908756892   -1.73397496979626
