    26
        -50.46167936  Gyration_radius:  2.40147102326 Dipole_moment: 7.748
 S          -0.54370004602483    1.13469354468989    0.91200889749232
O          -0.77813475919857   -0.31006634782768    0.78546828378697
O          -1.57912330754244    1.92408900556998    0.31511890926362
O           0.81128030391161    1.39322121563900    0.12985803534993
O          -0.19243798456405    1.47809880318163    2.28644894163509
H           1.05341316138451    0.80056546595195    2.40761545161607
H           0.63793324459644    1.27334197011334   -0.84637385755790
O           0.34286103007284    0.99774268846778   -2.38999824896426
H           0.56632679962399    1.75998404585679   -2.92642698109023
O           1.00085727032283   -2.10219259968551    1.68584551630223
H           1.26343018878121   -2.35222761636848    0.78886801059779
H           0.14072571052433   -1.65476122556750    1.56060416862813
O          -2.33668313554053   -1.53520517219275   -1.07502072335034
H          -1.63812906878507   -2.08569556887594   -1.44024911850833
H          -1.96427065709506   -1.14007502378838   -0.26772204143065
O           0.81056273151339   -1.49447557157032   -1.06119979620604
H           0.20467994241167   -1.01603275426017   -0.46696804436249
H           0.93507932335796   -0.90594681124523   -1.81180862759386
O          -2.20363949588541    0.97100423511795   -2.10443918385350
H          -2.18195708509958    1.43503068138056   -1.24438469719583
H          -0.67060226939795    0.95758504959111   -2.38244924687488
H          -2.46282748164858    0.05235454972148   -1.89028689744171
N           2.00680793585057    0.23884135783992    2.30570399336920
H           1.72875946518775   -0.77916485970896    2.11804820370359
H           2.59035436570108    0.32993160536436    3.13131828422093
H           2.45843379749934    0.62935933260549    1.48042075853812
