    26
        -50.47176460  Gyration_radius:  2.45095852081 Dipole_moment: 4.283
 S           1.32437695634467    0.43341966796114    0.56892766784699
O           1.65491444477615   -0.54046820366796   -0.45756930587994
O           0.84233521273300   -0.16906392829463    1.78849671863224
O           0.34764432182078    1.41731943628010    0.05557988028332
O           2.63934707086983    1.21826870130645    0.86401598878167
H           2.34569138104484    1.96824319682266    1.41576149440914
H          -1.05389331557100    0.61298747455667    0.65695213397050
O          -1.83980723510851    0.11433082998149    0.94645630568119
H          -1.64358692859870   -0.11789425855606    1.85806586366680
O           0.58076638182167   -2.71101626511982    1.07200937892435
H           1.32790973510689   -2.74687200965026    0.46989867625715
H           0.65601098878073   -1.82970015960843    1.49286144934402
O          -1.37637930287661    1.34281392804468   -1.98748912699743
H          -2.20073447123803    1.29014827114790   -1.49583849183316
H          -0.69240796875921    1.54699763120235   -1.31821993510117
O           1.17396701769525    3.21477207502746    1.80759425485624
H           1.30040558465053    4.08027427883368    1.41219825265062
H           0.62693199116346    2.69772729176113    1.18639342522902
O          -1.66804113952979   -2.28964136310861   -0.29567259812688
H          -0.92817136593509   -2.63940996932557    0.25393427895671
H          -1.94991082508748   -1.47579565099807    0.17065381703255
H          -0.92145769393766   -1.69177371878688   -1.48054256635659
N          -0.29055008017231   -1.09488131649064   -2.13055583832297
H          -0.77059256324110   -0.17724453304412   -2.29714355710383
H          -0.05965366846954   -1.56869314188410   -2.99601975910806
H           0.57488546171420   -0.88484827438130   -1.56074841768927
