    26
        -50.47176452  Gyration_radius:  2.45099530069 Dipole_moment: 4.287
 S          -0.91429725833146    0.54151867267670   -1.06561728585130
O          -1.67649961229773   -0.50867200370180   -0.41172730231156
O           0.07839674471846    0.03545112941254   -1.98269888652330
O          -0.28854741469719    1.42961283067098   -0.06292906253467
O          -1.94878968044143    1.40700212779196   -1.84850974262904
H          -1.43767717921917    2.19247392968596   -2.12237670214101
H           1.23585647725201    0.62436925600935   -0.03333625787553
O           2.06889611538396    0.12105904252478    0.02068064691892
H           2.31652081279715   -0.01564298864129   -0.89772083014053
O          -0.22523009961102    3.41929350722758   -1.80062298041756
H          -0.52607670215621    4.24731912532892   -1.41952882295446
H          -0.02274881511017    2.82255308379221   -1.05535684853496
O           0.30060179940235    1.09034899350273    2.52351700773049
H           0.00126723570830    1.38563460054994    1.64001586984555
H           1.25900053673799    1.04784515129934    2.46270800690250
O          -0.01024035650373   -2.57132369392925   -1.49221270402126
H          -0.95062886054688   -2.62907511107527   -1.30680788212541
H           0.11411162027914   -1.65244218570983   -1.80789320732619
O           1.35363320579204   -2.37867639407616    0.78976334773483
H           1.81559179519071   -1.53813746600964    0.59130367258509
H           0.14304199982773   -1.86132875174029    1.55496769587584
H           0.95134115061164   -2.64236369296358   -0.07073973870112
N          -0.71870445198802   -1.30032138564825    1.90066082838305
H          -0.37315599438263   -0.42406167303292    2.36219630086177
H          -1.32061956024850   -1.84186439896807    2.50997870873175
H          -1.22504352815241   -1.00057172497771    1.02228615851829
