    26
        -50.46575955  Gyration_radius:  2.39064988215 Dipole_moment: 5.482
 S           1.54042654701210   -0.01217378885219    0.27398694924012
O           1.93038919842820    0.51315219175932    1.54890275696159
O           0.59279703496079    0.85327175267062   -0.44672754808629
O           0.74860477523184   -1.36492642872387    0.51257593368723
O           2.62714370097390   -0.40460504430868   -0.61502733378167
H           1.90341519394569   -0.52514654685237   -1.85840637790329
H          -0.00355224373655   -1.15701157388485    1.13121636237862
O          -1.27126128825798   -0.74324578060300    2.03361718722554
H          -1.38020185901212   -1.32911028646486    2.78441957552153
O          -0.85355925263307    2.84705827023410    0.64542688096288
H          -1.71203545378592    2.64331570638836    0.26759217672561
H          -0.21761065873529    2.25061356894015    0.20689929551954
O          -0.61682230901666   -2.19744808369413   -1.78253338888062
H          -0.13845213128347   -2.45152100051219   -0.98214763898839
H          -1.27595634120931   -1.52799931118132   -1.46887196895230
O          -1.85603776810116   -0.14703519400172   -0.65418735472256
H          -0.98736711114436    0.30563969801047   -0.60308887677701
H          -2.05384711355319   -0.39463671668094    0.25797629931576
O          -0.20004542008797    1.42623982006167    2.86329515410993
H          -0.93289388759841    0.13523655114560    2.41632293780096
H           0.69904148394574    1.19246345894295    2.55496666059624
H          -0.49235195549117    2.13398103915240    2.25622050348375
N           1.17441841959172   -0.51632530092207   -2.68452730217569
H           0.43906557475033   -1.26752233407635   -2.45165186504075
H           1.60674826059629   -0.66148477570658   -3.59135102749474
H           0.72994460416642    0.39922010914890   -2.61489800086777
