    26
        -50.46575949  Gyration_radius:  2.39058589643 Dipole_moment: 5.482
 S           1.04097431848008   -0.73227454270447    0.91081136577088
O           0.85017066065068   -0.54164434496537    2.31817041195027
O           0.99350149116336    0.52206198822962    0.14212746338703
O          -0.17032124473115   -1.59097755121447    0.35465084970685
O           2.21433441270884   -1.50607409041132    0.52386497321920
H           2.27146320378496   -1.18839493424597   -0.88353833506155
H          -1.00656094039380   -1.11257992752858    0.60651225747186
O          -2.31966250183698   -0.23869591901932    0.93122586100686
H          -3.00640339381935   -0.76673599714935    1.34156629068515
O          -0.00542458519805    2.86513548582671    1.02049201702855
H          -0.54032757288076    3.10248102857516    0.25970416576112
H           0.50993985745241    2.08057821262270    0.75341473411307
O          -0.30099256658961   -1.53217294320887   -2.43910176185564
H          -0.44447056018509   -2.03722514374630   -1.62772933265516
H          -0.74222364689535   -0.66271515333678   -2.26489495267267
O          -1.13885465407118    0.76342129938461   -1.41863512263966
H          -1.86150297075467    0.56304159683234   -0.81025435264689
H          -0.33640844317194    0.76624872713626   -0.85460828645840
O          -1.17228467206832    1.13680270592501    2.75722275907315
H          -0.39615359957970    0.54431632364456    2.82534077116387
H          -0.82890896628055    1.94426414864218    2.32711391902045
H          -1.95361055758576    0.35791745766278    1.66788636715604
N           2.14868439405164   -0.78517737666663   -1.90143577843917
H           1.19449674141241   -1.13560663361807   -2.25653233258841
H           2.91252355981224   -1.03981680063999   -2.51949668074772
H           2.08802222658288    0.22382241392640   -1.76387726074708
