    26
        -50.45181104  Gyration_radius:  2.49785425456 Dipole_moment: 0.841
 S           1.19057299652085   -0.97669599159215    0.15767979424090
O           1.07656917437318   -2.20625169830825   -0.55766332415747
O           0.03826251200934   -0.64060729399699    0.96016556337902
O           1.45425917006861    0.19404527616073   -0.82824870251757
O           2.45004244184737   -0.96476137558238    1.01006378431546
H           2.55499582923548   -0.01488641941069    1.38916439287727
H           0.65504032177943    0.28270122305448   -1.44091634810221
O          -0.61022393728993    0.39901919418075   -2.31849122779045
H          -0.39551112038619    0.44352704188386   -3.25302095708912
O          -0.12102770669646    2.73059490137128   -0.71925535851195
H          -0.59212312757810    2.06665524300012   -1.23875064359882
H           0.81353333178056    2.59435452597821   -0.89703893267747
O           0.04845560971094    1.87304698369909    1.86693133107204
H          -0.14277313222184    0.94284634916095    1.64614925256272
H          -0.13525039855621    2.36934635683415    1.04640770569853
O           2.58142351182282    1.37065850045227    1.96424162001824
H           2.85299743424741    1.33827626949906    2.88419496897104
H           1.62067789284686    1.67526816170948    1.96342239486277
O          -1.31478847163633   -2.00213553186664   -1.85669584113406
H          -0.47196145946401   -2.31395681071906   -1.48534957626787
H          -1.93891624357986   -1.98065326426841   -1.08907689384779
H          -0.99636537265494   -0.53422421334101   -2.16993528401856
N          -2.62878230619009   -1.72398952923043    0.47665688052943
H          -1.76440998057315   -1.33973012230385    0.85285465301302
H          -2.86476873965656   -2.54421790797482    1.02037503311384
H          -3.35992822971665   -1.03822987840873    0.61613570504795
