    26
        -50.45181095  Gyration_radius:  2.4982313649 Dipole_moment: 0.837
 S           1.13218807455915    1.00382936340394   -0.31895267210156
O           1.66309550004782    0.93362695971835   -1.64176718034142
O           1.05934749799594   -0.26504060436941    0.36627583956367
O          -0.29140921490413    1.62417839887028   -0.34540037856018
O           1.90389106023015    2.01283185616427    0.51734668388916
H           1.39974239202425    2.12624708337420    1.40628404705266
H          -0.89712838997378    1.00991569372019   -0.87252810095552
O          -1.78379859361839    0.01285738800971   -1.64953876057973
H          -2.30507882435808    0.44946324640560   -2.32708948517975
O           0.64787895511103    2.16405980332263    2.70382612958292
H           0.18337668426510    1.27164679921342    2.76505505951423
H           1.26445726647851    2.19771656515507    3.43856468509578
O          -2.58993846118017    0.35637660456035    1.08263167036098
H          -2.47422147288091   -0.04617338039123    0.21242238878635
H          -2.36515584729286    1.28492314223306    0.97884293616714
O          -0.39406064734174   -0.19849651454869    2.60745492175283
H           0.16556335510246   -0.43089070521845    1.84355118376113
H          -1.29715692665601   -0.12318501079293    2.24420841246524
O           0.20505322077710   -1.03758260556111   -2.83981160859932
H           0.48462347004767   -1.82251575765319   -2.30616796136221
H          -1.05457664824661   -0.49652717196249   -2.15030157105213
H           0.85789867773980   -0.34779136834174   -2.63131512445165
N           1.02407358907454   -2.83811942903833   -1.01291726975608
H           0.39900504742064   -3.50614026084975   -0.58010980563441
H           1.13447706332308   -2.05396301622456   -0.37325363117299
H           1.92785316224686   -3.28124707915802   -1.11731039828238
