    26
        -50.45649669  Gyration_radius:  2.42365597137 Dipole_moment: 10.027
 S           0.40000055124129    1.60988163550777    0.48002639418529
O           1.44652913201157    2.21981867658626   -0.28152073482047
O           0.70035830336837    0.24007287083699    0.89942924689873
O          -0.89707315368575    1.47614373075452   -0.42821923955855
O          -0.09438362154713    2.40575643236822    1.60807781609250
H          -1.25316208065143    1.76217068587225    1.98424484536017
H          -0.67449946535349    0.81673422232619   -1.13476968334158
O          -0.25196708065631   -0.40966467488174   -2.10310101753691
H          -0.53743228743073   -0.32370378023634   -3.01447596639699
O          -1.52420858666219   -1.02011141146035    0.86268785604165
H          -1.78026355323460   -0.95582585970176   -0.06220160774529
H          -0.59513863679597   -0.65246198861464    0.90122621423007
O           2.65348506766013   -1.45683319550367   -0.03604459184497
H           2.04570184736114   -2.17352599945432   -0.28600506100927
H           2.12134424272874   -0.86037773941156    0.51373530856108
O           0.32098865274883   -2.81632471186924   -0.71978740570005
H           0.08750817162575   -2.07000617136589   -1.29264659136620
H          -0.20635236481336   -2.72268618918099    0.07846329370436
O           2.17778381816277    0.28800023613393   -1.98345768563346
H           2.08694195164860    1.09868294536388   -1.44564584873459
H           2.57192883199122   -0.38073286157851   -1.37160513513846
H           0.75281260793811   -0.17254328643243   -2.11053591404812
N          -2.19575191678090    1.16537353132844    2.20463766927022
H          -2.99255502275172    1.66537106231944    1.82286858968363
H          -2.29931476683931    1.03239993235020    3.20582907966031
H          -2.06328066125124    0.23439190790761    1.70879015925800
