    26
        -50.46044996  Gyration_radius:  2.45538224089 Dipole_moment: 6.762
 S           0.69446001002299    0.28400655521655   -1.37082106023792
O           1.28074537957809    0.43171946864783   -0.03839325453357
O           0.15157778287168    1.50704313515657   -1.88736915032170
O          -0.47359368447475   -0.77053825074895   -1.21011705994709
O           1.61588115342146   -0.40239556651413   -2.27950082412453
H           1.61748088446317   -1.70719809604676   -1.75484869230679
H          -0.89925196970776   -0.70707772319111   -0.31200391522128
O          -1.51995197964798   -0.86804267136463    1.16718214405369
H          -2.43465173635052   -1.14422833376070    1.08954458733747
O           0.84744162663399    2.46379633771732    1.61929362098887
H           1.04684455560803    1.80467688601854    0.92275159048438
H           1.50222461001827    2.32974028473800    2.30607520136489
O           1.08494046142019   -1.84430097100544    1.17922304700322
H           1.29533578557333   -0.92916690263698    0.86851740743880
H           0.14954361831828   -1.78414673261437    1.42434131305664
O          -2.16237701412340    2.22578272044866   -0.83750786629429
H          -2.24593610545690    3.15807887544217   -1.04509746113821
H          -1.32466419180267    1.93895749050221   -1.26431508213943
O          -1.71031178001172    1.61318199481102    1.74201915227314
H          -0.81691752263936    2.00014809768595    1.84006267967322
H          -2.00649600900768    1.90707335750097    0.85407708006228
H          -1.56303522041951    0.10031986848905    1.47940923453270
N           1.50732086177793   -2.70236986822016   -1.25242583339252
H           0.69216283390996   -3.15841654551395   -1.65110661026902
H           1.33099424846494   -2.47726950522589   -0.21315133185305
H           2.34023339155468   -3.26937389552327   -1.37583889649428
