    26
        -50.46044994  Gyration_radius:  2.45531059282 Dipole_moment: 6.757
 S           0.79090356580642    0.24306285962371   -1.32542359111340
O           1.29366474744561    0.39266662229614    0.04046010685787
O           0.32062807165030    1.47405172990504   -1.89180836449555
O          -0.41698943226268   -0.77364154529872   -1.22825175601769
O           1.74792374998338   -0.48391358210106   -2.16306623129744
H           1.67510767707416   -1.78025222978165   -1.62319590504129
H          -0.89810807369610   -0.68447775875134   -0.36078422243363
O          -1.61840269193898   -0.80542220150408    1.07632484258788
H          -2.53412873121226   -1.05539975160630    0.94233641012503
O           0.81472820245746    2.46211022534079    1.63808100030519
H           1.42019582542810    2.32093658641011    2.36738581778227
H           1.03899446977963    1.78652339014640    0.96522378158839
O           0.94917987884427   -1.85864674866319    1.27132213071770
H           1.20753959808125   -0.95486253415162    0.96367975493878
H           0.00211999800346   -1.76701092375706    1.45392772999970
O          -2.03399513162232    2.27605801727655   -1.00536249856497
H          -2.07508356930143    3.20747799202573   -1.22914226251751
H          -1.17934360754254    1.95837177130191   -1.37260636052068
O          -1.76999064134862    1.68851767226773    1.60581986348930
H          -1.99880202790015    1.97776819658558    0.69667530411518
H          -1.65212496939848    0.16825653792198    1.37282842400277
H          -0.87349164807164    2.05043740274611    1.75685703257912
N           1.50155430383541   -2.76436117188055   -1.11668934284954
H           1.26549113564748   -2.51899869801233   -0.09405556300068
H           2.32241618147566   -3.35831078349703   -1.17855133045088
H           0.70001314877447   -3.20094108484231   -1.56198477078017
