    26
        -50.47064475  Gyration_radius:  2.48565558361 Dipole_moment: 4.192
 S          -0.96836673290134   -0.57479845242465   -0.53473445602978
O          -1.48930371754181    0.75038461320275   -0.84270599954329
O          -0.76028038870130   -0.71215550052311    0.90929904035085
O           0.26764735711684   -0.85103623137472   -1.26379387502426
O          -2.03400491668204   -1.60288085561342   -0.97075173811772
H          -1.50527590056239   -2.44438443665492   -1.09519576303702
H           1.41504583037612    0.15231908914845   -0.80862264229585
O           2.09626427356037    0.81476112793972   -0.51453422155508
H           2.94120416823360    0.47209676003086   -0.81071072398263
O           0.90555862559894    1.05589468807693    1.95375762214359
H           0.31352219082231    0.29893382414108    1.74922392956199
H           1.58581276096490    1.01594143175011    1.26006511877411
O           0.07911487677552   -3.15364685153630    1.46119109492722
H          -0.51087356402081   -3.51229888923106    2.12595983065622
H          -0.19534499604476   -2.21927285950948    1.32817666800883
O          -0.29489316492542   -3.47465039737275   -1.17440402046329
H           0.27822232421816   -2.74620030597507   -1.45749078225233
H          -0.08096106670317   -3.61188295273057   -0.22756288471114
O           0.52905478256716    2.81334121873379   -1.54165965438694
H          -0.15359215517190    2.21460225492353   -1.86970763667044
H          -0.20466571750927    3.09157697177695   -0.02830543394672
H           1.26390495323645    2.23044745076370   -1.27620110512956
N          -0.75564486635068    2.65676691621536    0.75204281768542
H          -0.07433465771547    2.15182074621503    1.40830682256933
H          -1.27264259466504    1.87992096953932    0.24422684758119
H          -1.37516769376073    3.30439969023138    1.22413114460726
