    26
        -50.46044991  Gyration_radius:  2.45537481138 Dipole_moment: 6.759
 S           1.27188318434776    0.82486910205345   -0.37766738227886
O           1.32362336328679    1.96430861594040    0.49206777448554
O           0.02344786271557    0.73502221616793   -1.13529281513373
O           1.33884261911124   -0.49259441278517    0.49536838005506
O           2.43425659824362    0.67944650710631   -1.25722980879278
H           2.34898480907117   -0.67539611448851   -1.62422314676135
H           0.42960658005509   -0.79446349720254    0.76754056424160
O          -0.97681667984718   -1.51725449099211    1.08144923095723
H          -0.90483969201543   -1.98302663011112    1.91625158563010
O          -0.11495249260141    1.74652883042897    2.69558241722181
H          -0.21931525571263    2.64645942305270    3.00946802570533
H           0.45831423823087    1.81395410390827    1.89991986145750
O          -0.43039374893889   -1.76431168441075   -1.63508823281631
H          -0.40419025623727   -0.77660778782590   -1.59126196110723
H          -0.77091266913335   -2.01442155314661   -0.76316889258045
O          -2.22072382589270    2.03972588898828   -0.56417899103869
H          -1.33717058151166    1.67575210188263   -0.77933155467984
H          -2.76455372279226    1.89025008308030   -1.33894828149931
O          -2.31631164015631    0.56869924259681    1.69584829285037
H          -1.57965453001604   -0.71994761049044    1.27632576862450
H          -1.59798690186287    1.01537139495829    2.19293656348978
H          -2.44444116566907    1.12595143929988    0.90181359287810
N           2.17658127604870   -1.76599090704694   -1.81369916494553
H           2.61774913679691   -2.28161525094456   -1.05816307990316
H           2.55161157099562   -2.04533255984157   -2.71465392187037
H           1.10736191347435   -1.89537644017082   -1.77166483418749
