    26
        -50.46417701  Gyration_radius:  2.54070789052 Dipole_moment: 4.516
 S          -0.90115952787943   -0.43799481358799   -0.09106832249076
O           0.14303663909001   -1.36889672855719   -0.81395963199318
O          -1.77808387666099    0.12185519409178   -1.09253441347052
O          -1.57834738810164   -1.29036125925701    0.88106467164033
O          -0.09152990522979    0.56967224342455    0.60362950105478
O          -0.46563663445786    2.43228068635745   -1.28173529927267
H          -1.22262985761350    1.83685511410998   -1.41042268548517
H          -0.06185548727559    2.06227648546269   -0.48140181704959
O          -0.23681080232483    1.01065090267088    3.20023505228518
H          -1.07068425007921    1.44395104491206    3.38784680225290
H          -0.16255039797662    0.97956265193943    2.21799874772156
O           2.09650428018612   -1.17990680543161    1.04000768720962
H           2.14238151203440   -0.21865034612374    1.06244427842963
H           1.54317057802629   -1.37786534586994    0.26267205302367
O           1.00992246342534    1.51600028614702   -3.30202887846013
H           0.94439304337501    2.11737337202572   -4.04515525660169
H           0.53902503258291    1.95174569785016   -2.55106737098738
O          -0.39837031042850   -0.75997520743572   -3.20598022127734
H           0.19812417833918    0.00706587984796   -3.36908059737615
H           0.01169396570287   -1.23777214778771   -1.81401000137801
H          -1.20994681300947   -0.38784394771991   -2.82585124071300
N           0.11790463937820   -1.58856933274640    2.76252612453522
H           0.05372684067641   -2.38691459389562    3.38367877671542
H          -0.65976612343017   -1.57931984406465    2.00384007452705
H           0.01404442774632   -0.67490482014608    3.25636434920924
H           1.02344378389428   -1.56031437623225    2.22198759794690
