    26
        -50.45514531  Gyration_radius:  2.45843343127 Dipole_moment: 1.642
 S           0.54401481403117    1.25469712317402    0.59538669318550
O          -0.82917646426408    0.80841673032995    0.73061952855528
O           0.69994362832719    2.40228492049317   -0.24853726534185
O           1.37982817427235    0.08297635592913    0.03941535641650
O           1.14410411996064    1.49656958235967    1.95743817535260
H           0.77270282660093    0.71190033219381    2.56541194232444
H           1.06504752849673   -0.16133017992491   -0.91541564877660
O           0.49256364289088   -0.37279735352238   -2.27458328169108
H           0.66843176122551    0.44871873217074   -2.76106157494574
O           0.14205988542429   -0.40510581189443    3.19202766549551
H           0.51620964604753   -1.22415430400956    2.70892424297220
H          -0.77374787451254   -0.33121942400713    2.90601961258808
O          -1.46976781182939   -1.82036701449212    0.31726850150806
H          -1.28254852573238   -0.89107097007788    0.52689704478348
H          -2.00805660748504   -1.80084082346550   -0.47688203590510
O           0.05454531684381    2.27718020514016   -2.81886014378793
H           0.29162049253684    2.42354750365380   -1.87929181936143
H           0.34322000676962    3.05969022279851   -3.29067344807278
O          -1.95286781975766    0.49307872964315   -1.72118630847137
H          -1.73691979089320    0.73347330223348   -0.80322723089192
H          -1.76122342086938    1.27487567482315   -2.25207005154077
H          -0.48182982260746   -0.33890053526901   -2.12542014173904
N           0.99454812676734   -2.37508272798070    1.71817087880461
H           0.15341227848990   -2.54878473482501    1.17254202978457
H           1.36566226361638   -3.26035440125297    2.03597221886276
H           1.66822361564187   -1.93740116418814    1.10111506987087
