    26
        -50.47064471  Gyration_radius:  2.4855536646 Dipole_moment: 4.193
 S          -0.90781070699300   -0.80678468059374    0.28175870596628
O           0.48651428870491   -1.25710469562443    0.30447704264643
O          -1.36461560235231   -0.65840925651361   -1.09362132689812
O          -1.06286748729368    0.43387880768589    1.03822236546869
O          -1.77952931368127   -1.89556777490691    0.94311333837227
H          -1.69680577007404   -1.69465459781693    1.92082291995420
H          -0.14093121195535    1.57545817384128    0.42377000548854
O           0.43028960729063    2.26692354933095   -0.00627721236596
H           0.50349742290119    2.98034948785123    0.62993109059888
O          -1.29409776644644   -1.00111678163829    3.29562961532790
H          -0.34887082523227   -1.24714877150408    3.38010452229108
H          -1.29055949707557   -0.14653419635718    2.83855257132889
O           2.18434235329583    0.35639068757493   -0.92284085894664
H           1.83585804135369    1.19573884898310   -0.57690086133242
H           1.72879492967088   -0.32880340089528   -0.38594320326414
O           1.26576586070891   -1.62578072883655    2.79980417211195
H           1.05807242185894   -1.47651939789264    1.85078754163365
H           1.61351107781578   -2.51686725835520    2.85930250972411
O          -1.09506041583198    2.05209610639926   -2.27219040106904
H          -0.56567272300521    2.36394174318278   -1.51544617777628
H          -0.01660451806121    0.92337742796461   -2.95756447942955
H          -1.69511458804316    1.39467669951364   -1.89824174144092
N           0.44936434441270   -0.00787148170553   -2.82644461495902
H           1.31400528021926    0.12930995363517   -2.20723892220773
H           0.63999776214796   -0.49443973603723   -3.69419712565873
H          -0.25147295438066   -0.51453874735143   -2.20936945544076
