    26
        -50.47679056  Gyration_radius:  2.36807498341 Dipole_moment: 3.213
 S           0.65935818273070   -0.84313719884178   -1.11925625717537
O           1.53749698304586   -1.82639776837547   -0.52020332286379
O           1.20270758623220    0.51049131138624   -1.00180151075674
O          -0.68363629338200   -0.89157843542551   -0.51858244507661
O           0.51352343206834   -1.17433050855986   -2.62193697849906
H          -0.28840100358095   -0.65575640298693   -2.89470763932875
H          -1.05863442841700    0.48359632687796    0.41147291866913
O          -1.20491762597885    1.26721923821361    0.98022667738626
H          -1.27671724277783    2.00062954017725    0.35873587597194
O          -0.51685045003244    2.38964929750233   -1.56423716378409
H          -0.08190902760359    3.10832090408535   -2.02506859354375
H           0.19037554027907    1.73133043357112   -1.35021318715836
O           1.41456334161642    1.17241717135188    1.57613608315131
H           1.58081957615829    1.05099648698037    0.61967510327036
H           0.45742778172945    1.38679913247504    1.60738739123309
O          -1.65606539367082    0.23769774309217   -2.77577370925584
H          -1.86605739898198   -0.22395248792267   -1.95259451267703
H          -1.40333050782153    1.14105461417298   -2.50213122990730
O          -1.29250217571719   -1.62400646118549    1.99279777705121
H          -1.71400541685267   -0.79934199501914    2.25417513223828
H          -1.20961751821242   -1.56684003435109    1.02005428482322
H           0.34364607791048   -1.59626814459540    2.23758842604599
N           1.35684630128229   -1.39339275786811    2.03916070944749
H           1.52985169603359   -1.69790441270629    1.03537376466319
H           1.98218241904877   -1.85847804604211    2.68752401329425
H           1.48384556495644   -0.32881756608493    2.02619837253247
