    26
        -50.46970781  Gyration_radius:  2.55333214207 Dipole_moment: 5.552
 S           0.32250035339057    1.06857304084108   -0.06134395166420
O          -0.29613727314047    1.31147659293031   -1.36289362866165
O          -0.64945087394163    1.22093191092216    1.01900891148513
O           0.95053961860172   -0.25209541915204   -0.03469773954448
O           1.41986863880341    2.13261582681406    0.17697500598377
O          -1.50863023211058   -2.30131233142612    2.58224609945762
H          -0.64191832508109   -1.81520662708163    2.61458578354142
H          -1.79544634466249   -2.39740252003605    3.49139936024709
O           0.58035576666837   -0.69729017425124    2.54393153465539
H           0.17552567794584    0.17792787092981    2.59107627759624
H           0.89614284988490   -0.73410616616371    1.61936164713344
O           1.57788748853329    1.35694648810096   -3.23956589842126
H           0.81663569687972    1.34225202503592   -2.62025703439787
H           1.55162516727306    2.21125360250824   -3.67348264660561
O          -1.18869920623972   -1.15843013513966   -1.60950542828553
H          -0.94307082310922   -0.21391058316425   -1.72312800335180
H          -0.36101690811563   -1.57930153747576   -1.35279494501915
O           3.18016515574884    0.83352664240891   -1.15362528072744
H           2.71385838047712    0.05291385187471   -0.82116447386730
H           2.81867634157336    0.98757467538353   -2.05210270625412
H           2.23471839458748    1.77898763928372   -0.29500372347210
N          -2.40574631210927   -0.67252410609826    0.67864786279445
H          -3.38789297953879   -0.42151329075635    0.64959477793742
H          -2.20386957653537   -1.39122578885656    1.42051838333152
H          -2.06402999454233   -1.01698721624085   -0.26619209934339
H          -1.79259068126991    0.17632571880892    0.87841188545986
