    26
        -50.45213099  Gyration_radius:  2.49583581919 Dipole_moment: 6.318
 S          -0.22574942971290   -1.16642679981602    1.46150428326970
O          -0.74221027491569   -0.93002977410201    0.13081598220531
O          -0.97249108793004   -0.56948255947614    2.51766719256810
O           1.24788064551071   -0.66692875432662    1.49074582950421
O          -0.03903766444968   -2.66171339715266    1.66591195545565
H           0.46301404224336   -2.94771797341226    0.79137052893219
H           1.30141856100063    0.32363558168880    1.28098180401632
O           1.23651118509576    1.82069583550633    0.90455190571740
H           1.73668230662207    2.35505118635920    1.52446749351860
O          -2.41407126702187    1.15621181753392   -0.64939554827315
H          -1.99123817361261    1.43805386890514   -1.48249306497640
H          -2.06048107457929    0.27396127497317   -0.47095206562403
O           1.07037293373954    0.25071703647511   -1.46644365874914
H           0.38244536532478   -0.22632754173301   -0.96651197168193
H           1.38402177038165    0.93467133578974   -0.86245946285184
O          -0.79232063465921    1.73579754437508   -2.79411089726168
H          -0.06669625839737    1.16030460141658   -2.47695701192231
H          -0.43005882492676    2.61936072621296   -2.87195411688205
O          -1.21684055475978    2.00303655167162    1.54789728641898
H           0.25156155726181    1.99112420113952    1.11917482304526
H          -1.76709591615332    1.84233394517952    0.73929339353161
H          -1.32063749386713    1.20216503674673    2.08493651103545
N           1.14124832164502   -3.01258286790728   -0.56514382204174
H           1.85990008370788   -2.29858289635836   -0.57142581484741
H           0.42131347754571   -2.73398404490378   -1.22097643077070
H           1.54255840498168   -3.89334394492794   -0.86049511331490
