    26
        -50.47063573  Gyration_radius:  2.48873186722 Dipole_moment: 4.108
 S          -0.53074070043084   -1.15482943155269    0.06031920881366
O           0.81229972697120   -0.96901285840105    0.61600210566278
O          -0.47339338607269   -1.20581288638147   -1.39389466083202
O          -1.43171374780293   -0.10180729646723    0.52688459459142
O          -1.07434613120472   -2.51433540161443    0.54976995822181
H          -1.44075807695355   -2.30378048331147    1.45737481836894
H          -0.86698358215005    1.33494424297558    0.15523977820433
O          -0.50053954056194    2.21713220769835   -0.12408712462889
H          -0.94310295872224    2.87027979657941    0.42049540943277
O          -1.88270247259350   -1.51004806969521    2.76680021254239
H          -1.02155410897981   -1.32649333462778    3.19768852786011
H          -2.05328549884538   -0.73570869023851    2.20948731225504
O           0.69729932320018   -0.96251824333150    3.25297629928284
H           1.33000607212469   -1.61062228968416    3.56644425745062
H           0.81121888873932   -0.91961541092691    2.27758066942955
O           2.06329014219721    1.21380812799932   -0.19658138377279
H           1.75556570228767    0.38957789679586    0.24091672175780
H           1.32373647696257    1.83294376986057   -0.07615234801880
O          -0.93215513695752    1.53681646230665   -2.73227912167776
H          -1.38558900125930    0.70709837633968   -2.54661705770593
H          -0.85245456895484    1.97980819594198   -1.86611352366301
H           0.64297678928707    0.91364778697329   -2.88149465428869
N           1.35869571811438    0.24393738058387   -2.50789317698615
H           1.83689950194185    0.69553620124278   -1.66222577425810
H           2.00604390883147   -0.09190003714872   -3.21092083266452
H           0.75128667084508   -0.52904601195812   -2.09972021553523
