    26
        -50.45467084  Gyration_radius:  2.45119094383 Dipole_moment: 2.770
 S          -1.43979193749812   -0.21388285276579   -0.02379896375373
O          -0.63032514893288    0.77821802627355   -0.70781965590152
O          -2.25679537082804    0.31488066612044    1.02220691412112
O          -0.49041565839281   -1.29915058317102    0.54803774494383
O          -2.25796047328558   -0.98406471789913   -1.03009556591408
H          -1.62821482889432   -1.07735742793228   -1.88234486694297
H           0.15462471421368   -0.88155930922744    1.20498288639562
O           1.05596033882400   -0.13997914624504    2.23196324279224
H           1.18725368981328   -0.65489738057235    3.03073966708961
O           2.04921501174087    0.21321932510611   -0.44350654214620
H           1.16489061202251    0.56437770569713   -0.62863508683210
H           2.12507643312128    0.21505579928674    0.51640012480136
O          -0.62212978899853   -1.03276033870179   -2.88699623021570
H           0.14930468754691   -1.58535612836310   -2.50318943365577
H          -0.33756470359493   -0.11531753112752   -2.81883798088826
O          -0.46079146520536    3.19763087515831    0.51619605527619
H          -1.24053720078824    3.69852153156140    0.27117902865925
H          -0.48154616973177    2.38042009640015   -0.01347509317464
O          -0.67793107992626    1.68445694901223    2.73624772154781
H          -0.48822630277104    2.42012067587903    2.11955335586320
H          -1.43679603256074    1.22689497092909    2.33353707683235
H           0.45755739880043    0.63324970986247    2.49388384627368
N           1.33752473906175   -2.26003027153835   -1.69609339762993
H           1.81690857986113   -1.45493764066810   -1.28619864638114
H           2.01956715882136   -2.83816746332657   -2.16864179972494
H           0.93114279758081   -2.78958553980965   -0.93529440146832
