    26
        -50.45467075  Gyration_radius:  2.45129103888 Dipole_moment: 2.765
 S           1.26080868510292    0.67777565008506   -0.26528146511732
O           1.92981193946847    0.47663328394559   -1.51152297813286
O           0.99354282825685   -0.54358011183915    0.47234902684762
O          -0.08995364036151    1.40198443437017   -0.50428281412554
O           2.00801306996293    1.64956610599147    0.61377382582934
H           1.60264499163965    1.50769988136514    1.58670132751179
H          -0.70608793707274    0.81209083816580   -1.04682821875025
O          -1.54321092910663   -0.15886899489728   -1.92643451505726
H          -2.01608801221870    0.30399661503601   -2.62113553492490
O          -1.70923633058970   -0.89146975422185    0.84974011822914
H          -0.74196365876542   -0.93442632706109    0.80337654147987
H          -2.00569411715278   -0.89305675189909   -0.06638964488900
O           0.93082668127638    1.10679897385692    2.77526976478920
H          -0.04353878946561    1.38176189408929    2.62541720504963
H           0.94380330152267    0.14886931955526    2.67736473919844
O           1.30874740184207   -2.85057102612340   -0.92752842614178
H           1.19615583071671   -2.08645159238816   -0.33401049359009
H           2.24096948248006   -3.07306384390674   -0.90824099373083
O           0.50610786562964   -1.29362674638407   -2.97630711692951
H           1.15428830100151   -0.62140232988670   -2.70175183426442
H           0.70976430903875   -2.06620262270201   -2.41140014676008
H          -0.81150039991653   -0.68345331761838   -2.38892937387063
N          -1.54061605141403    1.64412755671294    2.16742721474273
H          -1.82282161238278    0.73662744073159    1.78953906978120
H          -1.51683121946733    2.29877054777281    1.39586398458499
H          -2.23794198999556    1.94947087726781    2.83322074828387
