    26
        -50.45649665  Gyration_radius:  2.4236478451 Dipole_moment: 10.027
 S          -0.29990674620661   -1.07486680792095    1.31845518290335
O          -0.01792315869177   -2.45091910912737    1.04609977445136
O          -1.05954833210634   -0.40990166183330    0.25863474621079
O           1.06658077239020   -0.26779365292153    1.39977331930385
O          -0.89329841718864   -0.80916834570319    2.63284816112371
H          -0.79627521237964    0.55846400241395    2.76877011326068
H           1.44896364383290   -0.27568557865005    0.48472663671997
O           1.85700259821085   -0.19507364303558   -1.07981212266579
H           2.79372352459753   -0.29226445304750   -1.26044498116176
O          -0.05722199036229    1.12781873871512   -2.69825488262485
H           0.68675940072313    0.71820808340567   -2.23090153030696
H          -0.48216033749257    1.71812167462207   -2.06970187424720
O          -0.22248699890608    2.00524813494557    0.18973076276432
H          -0.62201131329005    1.09304352812502    0.10018663800087
H           0.70804397017380    1.89286213015256   -0.02613379592906
O          -1.48422204835960   -1.23548522095130   -2.33134607670589
H          -1.11832965601522   -0.43642744357817   -2.74755813369887
H          -1.59806565748580   -0.99903197368384   -1.39736806692013
O           0.74782879140874   -2.42711990820012   -1.51832878535450
H           1.43781508223368   -1.10592992609160   -1.32569113973307
H           0.47800150424400   -2.65564264687963   -0.60746589663873
H          -0.09057644862422   -2.17348565082401   -1.97625926368677
N          -0.65738136562044    1.68707251464247    2.78548503671267
H           0.13891939173556    1.90700424360810    3.37554826265466
H          -1.49860955506671    2.13765964408425    3.13204637259993
H          -0.46562143175562    1.96329332769148    1.77696153289482
