    26
        -50.45467074  Gyration_radius:  2.45136893877 Dipole_moment: 2.768
 S          -0.22006656705960   -0.76967488135414    1.21607034155703
O          -0.42249830475052   -1.14007425480886   -0.17287078471307
O          -1.42765329366067   -0.59641333455931    1.95968310922706
O           0.61058422176417    0.53990106500875    1.24946862128299
O           0.70021737072306   -1.76449583190505    1.87858934788593
H           1.40547805435425   -2.02816536088600    1.12768141191954
H           0.10815353141068    1.27922506544161    0.77728340297405
O          -0.77822674666369    2.34623308046070    0.07518195471390
H          -0.75405236136642    3.18938732008511    0.53228944682376
O           0.63763872500170    0.75758000861923   -1.85945021328755
H           0.20843946639490    0.00571492390862   -1.42342633750352
H           0.14723069543536    1.53252331058959   -1.56594591157356
O           2.18747275761514   -2.23768836686382   -0.04280429376691
H           1.49853237715805   -2.30991659232231   -0.71182189652588
H           2.63996804343889   -1.33610541904033   -0.21593369730298
O          -2.95913228252892   -0.85331561606425   -1.10222747179862
H          -3.44864210078651   -1.63693077065714   -0.84687191024523
H          -2.03038915512219   -1.01823139121125   -0.85923084180065
O          -2.99146537678537    1.18520932812894    0.66091073852119
H          -2.62458639982737    0.58842012129370    1.33665382694495
H          -1.70343828701949    1.96843390714468    0.23578545380622
H          -3.19789297234719    0.59499836454164   -0.09179130752203
N           3.08291130264321    0.16219227795890   -0.49563725784643
H           2.35457488538953    0.49775322814314   -1.13038379472990
H           3.98643063227316    0.36587133616672   -0.90171377503401
H           2.99041177431355    0.67756848221121    0.37051184801634
