    26
        -50.47176464  Gyration_radius:  2.45076138432 Dipole_moment: 4.279
 S           0.99423599148658    0.47975859226521   -1.02264146445163
O           0.91357687035513   -0.95750647742366   -1.22044256274965
O           1.78633994538218    0.85122001011381    0.12512161930307
O          -0.35896242990529    1.06778488048569   -0.93045732523657
O           1.64921250291194    1.06079356186892   -2.31321816995412
H           1.52764063357658    2.02527687732744   -2.22374149608785
H          -0.45047838620581    1.04262085224126    0.79133715491993
O          -0.51469432506580    0.96249959398073    1.76066433699417
H           0.31788911573106    1.32228572960030    2.07815580116906
O           2.23132829374335   -1.50479974266369    1.26242156262142
H           2.28630761061583   -2.02206180179623    0.45531666372159
H           2.18499770906736   -0.57801520451924    0.94871235895378
O          -2.74393859727763    0.00929888147829   -0.34361860720651
H          -1.96849254630907    0.47558640223799   -0.71597820237163
H          -2.88109748402928    0.40280501546685    0.52264365357636
O           0.55778338348551    3.40836651271615   -1.74603886512317
H           0.02903382260646    2.71020686435205   -1.31543753437734
H          -0.00256275097890    3.80815583368710   -2.41506045731736
O          -0.22262529490933   -1.68139396213934    2.28755186974385
H          -0.83276925300141   -2.07590322144757    0.94925474603141
H           0.74234157588750   -1.72277919822389    2.08996927549695
H          -0.42398852862558   -0.72303200946324    2.30304425575270
N          -1.14957874737498   -2.11996203667596   -0.08731500902035
H          -1.94163794124293   -1.44409457706042   -0.21464435742351
H          -1.39539093256955   -3.05757029424739   -0.38280045812967
H          -0.33447024735946   -1.73954107218294   -0.64279877883649
