    26
        -50.47176444  Gyration_radius:  2.45066629568 Dipole_moment: 4.285
 S          -0.79593237718467    0.92503670556009    0.88066492569062
O          -0.67430723615821    1.85306048880818   -0.21778632379354
O           0.45406290945120    0.71253916559338    1.59036935650682
O          -1.35227083108208   -0.36214290226502    0.41245460394225
O          -1.80087446792845    1.49344365324712    1.92914930280117
H          -2.66211248357033    1.45891904347702    1.47087754331126
H          -0.67942107053091   -0.28775762275800   -1.17290124399979
O          -0.23970444972343   -0.26005558936586   -2.04242893189928
H          -0.42039537520961    0.62704191640660   -2.36480690651891
O          -0.23940821604452   -2.75679390941115   -0.00876496709143
H          -0.78245606634746   -1.98467775344569    0.24903271736045
H          -0.28173316950618   -2.78435078153032   -0.96869673573246
O          -3.79207116640358    0.65338814397241    0.39467983272644
H          -4.43693379784310    0.06335583971031    0.79144197410629
H          -3.00184594355973    0.11593966743972    0.19686768692348
O           1.95213833553675    2.21640421590096   -0.33098041279300
H           0.97462702052959    2.21439416921080   -0.39408765250967
H           2.12498997458367    2.15048916583467    0.61126277978528
O           2.41405300222962   -0.13218315492005   -1.50424876384054
H           2.41344132249280    0.80263309716776   -1.19148700203638
H           2.24818902975566   -0.89770542676044   -0.19864749130925
H           1.52646961022812   -0.25388431205525   -1.90030314285033
N           1.88490557020604   -1.31527047340364    0.73443277397255
H           1.18354213681379   -2.06112463543189    0.50662381263221
H           1.35163031584827   -0.53045695959305    1.20074860689068
H           2.63141743341373   -1.66024176139233    1.32653363772519
