    26
        -50.46452143  Gyration_radius:  2.52783579269 Dipole_moment: 7.113
 S          -0.25051643911949   -0.39203036109565   -0.64966599956431
O          -0.44083421717222   -1.81922287124946   -0.73581555075225
O           0.31852559783496   -0.07030427057007    0.79156330006756
O           0.75625448306214    0.14132245892607   -1.55047225831681
O          -1.50150199940031    0.36248584870036   -0.75372848371599
O           0.03031559228394   -3.48018520736732    1.27246937848614
H          -0.13938747495304   -2.96506244468483    0.45389004648220
H           0.96051838673568   -3.70789842219758    1.25461305161988
O           3.08012327241620    1.22886588358025   -1.10723485522790
H           2.29871608888572    0.65472726003671   -1.30099712615907
H           3.49593517129640    1.40402227809098   -1.95270896590546
O          -2.96762490429706   -1.44619139461821    0.50495320391012
H          -2.67704191817217   -2.23396452493302    0.03594894093051
H          -2.58505846784029   -0.70270251634177   -0.00243752931776
O          -0.62210061503630    2.59829451165288   -1.66238205535513
H          -0.17455636981272    2.28519365865697   -2.45342407069095
H          -1.11112007104216    1.79417511195081   -1.33636933123168
O          -1.12136101391529   -1.33338263199842    2.39238079565011
H          -0.72790278503585   -2.22225009411601    2.27025656535034
H          -0.27600588952332   -0.56378289641086    1.50016689496194
H          -1.96335539674558   -1.36205914833066    1.87277663616479
N           1.13292811413823    2.39969044397761    0.25616762644761
H           0.80665560328911    1.48728566331332    0.65330782988196
H           0.42420252314897    2.63698274568788   -0.52002190051402
H           1.20163305835383    3.12092459654840    0.96638205343023
H           2.05255966062277    2.18506633279114   -0.19961820663044
