    26
        -50.47176451  Gyration_radius:  2.45099257091 Dipole_moment: 4.286
 S          -0.85838540821399    1.18899011506409   -0.33614007881650
O           0.10231483032564    1.93059002426455    0.44483496312815
O          -1.70600872967994    0.32644804221564    0.46943502341848
O          -0.17716587890714    0.40865529403834   -1.39095256776136
O          -1.81502233756370    2.18473541937296   -1.06108955490637
H          -1.24248211492536    2.62314758959001   -1.71920721090471
H           1.28041065587104    0.14461877683044   -0.50830383227981
O           2.07167273868630   -0.05142030469070    0.02614358848776
H           2.31838102590510    0.80068242445920    0.39556662478063
O          -0.19307729585828    0.83909098357157    2.84562873417542
H          -1.13680122457833    0.67129660641224    2.78857153112427
H           0.00546015049103    1.36007831332904    2.04024179955740
O           0.05760563747292    2.56755558019955   -2.89677993557322
H           0.20545944124797    1.69620148564095   -2.48278508450675
H          -0.18266345481817    2.40315259729520   -3.81150318129076
O           0.35608351351900   -2.20048211226851   -1.63683990013490
H           1.30904186590275   -2.17865887023173   -1.51273834730399
H           0.08962590430617   -1.26395730343045   -1.73348467343252
O           1.15857061597883   -1.36930208814456    2.21279999637291
H          -0.01647403191822   -1.95554553202080    1.44197309728573
H           1.68560801403049   -0.99065824073222    1.47922644341102
H           0.74613134719958   -0.58487854321909    2.64457025049204
N          -0.83612596384196   -2.13385760785491    0.75404793220112
H          -1.30878589772526   -1.19544976032224    0.63667873091626
H          -1.48407183453694   -2.83686285290074    1.08990674131936
H          -0.42930157838021   -2.38417002647632   -0.17980108975443
