    26
        -50.46847051  Gyration_radius:  2.51374064279 Dipole_moment: 6.107
 S          -0.36072410545086    0.32655268690193   -0.69370999819493
O           0.11772496074412    0.62040053240342    0.67534685656517
O          -1.79054606116553    0.45780957616483   -0.80303534856926
O           0.04220617220297   -1.14947909981132   -0.97151616089914
O           0.38896809640305    1.11176492653944   -1.66441083961920
H           1.78100990948966    1.34598704758993   -1.22961203190335
H          -0.59746004569277   -1.76359615443445   -0.44575406423790
O          -1.59933683683198   -2.53798816628573    0.34398659136378
H          -2.37668120872773   -2.46037288827907   -0.24560294760236
O           1.62674543227084    2.70175955283017    1.35217931968720
H           0.92885360246034    2.03915194606215    1.15719899514809
H           1.82914305625266    2.60500731513562    2.28453125116589
O          -3.41905648177467   -1.56326890108839   -1.38018895454374
H          -3.41702145816183   -1.68548958221591   -2.33034249540736
H          -2.91894628454666   -0.73728040100569   -1.21146957455808
O           2.33961127742968   -0.82663235846532    0.60312463798586
H           2.07825869209033   -1.59136618891462    0.08246816625835
H           1.49492126783690   -0.37347534054573    0.81440729846788
O          -2.03922888196350   -0.39939928838749    1.88157714324867
H          -2.75004511389153    0.00039079274121    1.37206498667222
H          -1.79121391493770   -1.92562604791270    1.09086975353668
H          -1.22966996707881    0.04494628569113    1.56975818207530
N           2.73435836370078    1.43361823450219   -0.71314355829127
H           2.55916235732297    2.11802219859931    0.05684929073999
H           3.48867851325195    1.71450270924666   -1.32891074628244
H           2.88028862879905    0.49406061296030   -0.26666576285230
