    26
        -50.46847052  Gyration_radius:  2.51381414211 Dipole_moment: 6.112
 S           0.82471183765910   -0.18297307938812    0.06228439853505
O           1.68823721203339    0.54569949097637    0.95502444657700
O          -0.17580684112612    0.69800354259682   -0.57994461977433
O           0.00578127187004   -1.22456217765339    0.87634958214738
O           1.52727570261937   -0.96128902535277   -0.94837563131526
H           0.66337765415043   -1.27596091426816   -2.10456029999476
H          -0.36004684753770   -0.75928921238435    1.72027124128650
O          -0.80826729014269    0.02380690134529    2.90924602098827
H           0.02074183579963    0.03171638125693    3.42944362067241
O           1.79508565334882    0.12370794003395    3.57817565647680
H           2.36486417868281   -0.63015947786171    3.73564075886331
H           1.87992281918234    0.33389171419947    2.62453281949346
O          -2.03064341995079   -1.13867248938915   -1.04945654095180
H          -1.96561334949588   -1.70829270461170   -0.27777268098809
H          -1.50149617400717   -0.34594857170808   -0.81449901028563
O          -0.25596170824487    1.28160935708390   -3.17239854953552
H          -0.13487719663476    1.22532728324046   -2.19963472253954
H          -1.03660905659231    1.82128213097931   -3.31014875312161
O          -0.45594666535150    2.29366479892040    1.54707346871538
H          -0.88018321866503    0.93446730976844    2.54167102128540
H           0.46136450092950    2.46128596399138    1.78198735414199
H          -0.41202337264745    1.82485972231509    0.69365808138136
N          -0.11493867610922   -1.36089635141061   -2.85965806033113
H           0.07235975176922   -2.09372554330465   -3.53415014929580
H          -0.17174706871454   -0.41164085592591   -3.29279509082724
H          -0.99956153284692   -1.50591215336183   -2.31196437161824
