    26
        -50.47176457  Gyration_radius:  2.45081401359 Dipole_moment: 4.274
 S          -1.17274474828682    0.88482990226791    0.32798881570755
O          -1.94442763750352   -0.11250748674553   -0.37384354732193
O          -0.33297831362545    1.68075279779187   -0.55108643090738
O          -0.36151851495849    0.25755441022688    1.39286616583100
O          -2.13934407404528    1.88659514631853    1.03116196290283
H          -2.56067366106257    1.35232997057803    1.73120357509999
H          -0.13303259526892   -1.24816510043770    0.58401625228923
O           0.04213486634650   -2.06900821422509    0.08840022596544
H          -0.82265219038883   -2.33062165133590   -0.23902389744255
O          -0.93054153180500    0.04057932894775   -2.82151818625132
H          -1.42552217242364   -0.10891051713925   -1.98957156721118
H          -0.75846867644686    0.98532891779436   -2.82418694534219
O           2.25178471115449   -0.27937659592773    1.58049547251812
H           2.21974835421187   -1.23742537140693    1.50809947273405
H           1.32065136372521   -0.00082201789407    1.69386683083234
O          -2.47556039022425    0.11350775513976    2.97214232264437
H          -1.61760317601341   -0.06030194625062    2.54065482771452
H          -2.28312476737614    0.39704714368300    3.86881759458011
O           1.29189787835712   -1.28728530462705   -2.18779301213729
H           0.93556061600836   -1.77045049073356   -1.41401381897305
H           0.49535485438572   -0.89460344106631   -2.61574561146452
H           1.90829139965871   -0.07438969720821   -1.50349060277853
N           2.11278700254403    0.78087956103514   -0.86837016041387
H           2.39161511690827    0.42437742454197    0.07797756945691
H           1.18100666810825    1.26527276078176   -0.74681400853711
H           2.80735962802750    1.40481272590258   -1.26223329951855
