    26
        -50.47176459  Gyration_radius:  2.45075237464 Dipole_moment: 4.280
 S          -0.38063801564286    1.30493338389106    0.64590407231039
O          -1.59546465990634    0.50784288627912    0.66328601067165
O          -0.09170196909660    1.87131354950053   -0.64965493320667
O           0.76788889758585    0.51110859043500    1.13204363965681
O          -0.59983466499290    2.45510784449497    1.67608624919660
H           0.28445523911283    2.85816084370278    1.76915237772317
H           1.31774212522109    0.01410714616570   -0.42465685101525
O           1.57861665714585   -0.31130070194652   -1.30569004183846
H           1.58492565086952    0.47941369086415   -1.85179029269788
O           2.03089127055871    2.71255310934584    1.86785628527619
H           2.42010899141573    2.63661229315085    2.74200937647849
H           1.83070491268880    1.80558330710517    1.56817203400694
O          -1.90521808705036    0.68080878490038   -2.17826694874683
H          -2.60630830490725    0.63632076865946   -1.52363400559587
H          -1.21120678416939    1.22120054559787   -1.74721304927258
O           1.18496599825862   -2.12439491168880    1.31672713417408
H           1.84113899807093   -2.22835617365399    0.62198220500345
H           1.09513661851025   -1.15802643252673    1.44068385900624
O          -0.58895884630259   -1.63543218060347   -2.25539188339263
H           0.30458217364318   -1.28152168654294   -2.06691421808349
H          -1.04059626616227   -2.02208630322368   -0.85356837887414
H          -1.13520247714524   -0.83340759602130   -2.42958996227720
N          -1.24703107787159   -2.05453515676253    0.21094413191915
H          -0.35571704734003   -2.29628755465081    0.70829892913256
H          -2.00041328138172   -2.69051656132683    0.44502204435258
H          -1.48286608110738   -1.05920150518509    0.47820222608484
