    26
        -50.45087240  Gyration_radius:  2.57916246952 Dipole_moment: 5.670
 S           1.23081037556493    0.62492221970281    1.29117095457856
O           1.13732863409162    1.12639531583807   -0.09823879524976
O           2.05988542712954   -0.55274963502114    1.37467759920917
O          -0.11923081425071    0.40142125198830    1.81094206155281
O           1.89063027524552    1.74995357824363    2.13126110070818
H           1.24688884600572    2.49951249059916    2.02897127730111
H          -0.70905318274488   -0.93434427394863    1.26416125279991
O          -1.06639914605036   -1.80434841388994    0.91739493552183
H          -1.38042659892087   -2.27259634686119    1.69316405392565
O          -0.84630257182055   -0.22185182571464   -2.97147209717362
H          -1.52094907909788   -0.58621665029950   -2.34747106984629
H          -1.01474006138910    0.72035610850214   -3.02799999359801
O           1.45723467711002   -0.53950036907224   -1.88118111685827
H           0.57850971698045   -0.46432284731530   -2.39021492265543
H           1.40340651755304    0.22561814989016   -1.12693750464644
O          -2.58181799417296   -1.20178862049042   -1.22388639755945
H          -2.07481454494514   -1.37354793468819   -0.40255012047120
H          -2.96784867229579   -2.03932725455528   -1.48617583996465
O           1.30987122250404   -2.44734590103394   -0.25518209917228
H           1.43090407285579   -1.42511044529249   -1.31854322736762
H           1.78641281311096   -1.92016786864830    0.42791272363467
H           0.38762582716918   -2.44160404109136    0.06195434984472
N          -0.17757427407715    3.22192212593845    1.50968221643588
H          -0.65876105808583    2.33755519506017    1.64794000433305
H          -0.04540399270774    3.34125647396585    0.51352748536047
H          -0.75618641476514    3.97590953816921    1.85709317936653
