    26
        -50.46288576  Gyration_radius:  2.38941349544 Dipole_moment: 8.964
 S           1.47337484391899    0.10794444591085    0.88787453613686
O           1.38167912406223   -0.35655192308415    2.35284368632801
O           0.80073384717010    1.39661166192856    0.75609561205186
O           0.82419922023167   -0.90243263140305    0.04222479761857
O           2.88417762933646    0.19312553250843    0.51812024465138
H           2.73668837745723    0.06235007480548   -0.94047108019178
H          -0.57138570756111   -1.56069532726861    0.21525627090672
O          -1.49399351044648   -1.94034907025422    0.29190535867601
H          -1.41749387314857   -2.86950936151493    0.07196915333960
O           0.25049035947586    1.38754505608719   -1.79276219413105
H          -0.60958510665728    0.93719822370101   -1.78293947940734
H           0.43317087802236    1.57146727482320   -0.83972408994255
O          -2.22957587690650    0.18573371807156   -1.22523159325389
H          -2.03771413187574   -0.62537013442825   -0.71170095785612
H          -3.13105593052424    0.11232648858371   -1.54153041296378
O          -1.81342639768893    1.57235271397570    1.25506893655887
H          -0.85550396762960    1.72573739366489    1.15128903977000
H          -2.10375524168107    1.24985843751749    0.38988284947643
O          -1.15115004404738   -0.56923776705299    2.69245935520175
H           0.39521190391682   -0.44403870159959    2.58116660664626
H          -1.50146766312338    0.28459751533429    2.34164686322221
H          -1.42451107655518   -1.22980457238330    2.03750865894720
N           2.40272875451346   -0.05213951553513   -1.97793832322359
H           2.17982540172314   -1.03479105763612   -2.10846602226508
H           3.09678480456388    0.27180103576996   -2.64431299339646
H           1.48155338346233    0.52627047947645   -2.02023482290669
