    26
        -50.46417631  Gyration_radius:  2.54732553632 Dipole_moment: 4.570
 S           0.71004931871222    0.56648143594045   -0.36236980134208
O          -0.00152269710875    0.17179369995771    0.85715770042585
O           0.73074193045633    2.02124384573465   -0.48261519579817
O           2.01097307277217   -0.04848035619706   -0.49362372260905
O          -0.19703289521962    0.05569750455204   -1.54342507895041
O           1.48819537784448   -2.05166615641561    1.16647443362493
H           2.01269859448001   -1.43273376950669    0.62803375667140
H           0.72681691287379   -1.50537721442069    1.40735743975083
O          -0.70046667475094    1.89007311072726    2.72980756199043
H           0.09245809068636    2.18466914012212    3.18012130637786
H          -0.41598642471632    1.16119873144331    2.12999109396771
O          -2.57044924087994    0.41315178581052   -0.30751741827394
H          -2.35776966366623   -0.08726620817905    0.48692761821744
H          -1.84625627702689    0.20437163651469   -0.92494610003033
O           0.76856972020804   -3.63983355364865   -0.84959448593769
H           1.28999000907136   -4.44323874199721   -0.81959937176077
H           0.98910859340157   -3.13689486363060   -0.02909729468787
O           1.37649500764625   -1.65218204467307   -2.53852957494446
H           2.04855198084988   -1.22117610292568   -1.98719078754893
H           1.11703794160603   -2.47065603647105   -2.05485517854895
H           0.34608769979653   -0.63304134133609   -2.05925724742664
N          -1.55289120686001    2.76989910414285    0.36995542225483
H          -1.39939027097337    2.69476453321966    1.39987853824236
H          -1.93490527416127    3.66529265033782    0.08781415473974
H          -0.57759479987179    2.56915501556872   -0.06521729675567
H          -2.15350881516935    1.95475420530116    0.07431949834924
