    26
        -50.44460284  Gyration_radius:  2.78485966448 Dipole_moment: 7.135
 S           0.66316351848601   -1.33372904071498    1.19928414679187
O           0.37240981996279   -1.71758710615238   -0.16161447743991
O          -0.43337718988741   -0.81965092843732    1.95178238688851
O           1.81470152297589   -0.28546459468902    1.16180755012471
O           1.32805130125008   -2.49890891928895    1.93044519702097
H           1.98791287306713   -2.89258695528949    1.24082641660729
H           1.44735494616557    0.61638351718983    0.88971712766972
O           0.75357083562880    1.93674685917017    0.46502608938271
H           1.24498606942217    2.72117435243311    0.71588571643244
O          -0.58526886022314    0.43200274003227   -1.49030240708758
H          -0.31317422848420   -0.43480860176635   -1.14236017932542
H          -0.04748045368682    1.07965305983990   -1.01347245904651
O          -2.25200415923008    2.31184822397385   -2.80563626062414
H          -2.66725758900820    1.96612917782201   -3.59672615084478
H          -1.58392381009250    1.66234993876849   -2.54195759710167
O          -2.94116900971316    1.27924363852269   -0.24961537858841
H          -2.25961439012936    0.70598122845864   -0.63865537651862
H          -3.05683317964322    1.98281344692081   -0.90145903708250
O          -1.36755611521989    1.74575429243765    1.85709216362558
H          -2.08562602689483    1.67185600283593    1.18539612214087
H          -1.21100314566931    0.83392099140959    2.15056071040747
H          -0.10175133875283    1.94069160213730    1.03250041419717
N           2.75116582657377   -3.21477000750449   -0.06531571783416
H           2.02809775033479   -2.81310368437264   -0.65614828773570
H           2.90479647415208   -4.17979171965606   -0.32547160757027
H           3.60982857860713   -2.69614751409138   -0.19158911447936
