    26
        -50.45875100  Gyration_radius:  2.52092666462 Dipole_moment: 10.925
 S           0.95715263201390    0.50529812313093   -0.24896035964731
O           0.77339751836848    1.48286300010772    0.78529720443976
O          -0.07131182905068    0.56868995333123   -1.28656231792379
O           0.84043459871743   -0.93835344492458    0.37994076125980
O           2.30088517134686    0.49407758204670   -0.83535009201373
H           2.41795479047500   -0.77918339538025   -1.36797774297670
H          -0.02987785852399   -0.97803599983585    0.87222275277021
O          -1.47258153408530   -0.99892393817367    1.52548529113153
H          -1.97859093834602   -1.79260092918243    1.34434195431800
O          -0.36941496737280    0.97915651410798    3.27221143419193
H           0.24757075973215    1.16474881262410    2.54837480365349
H          -0.83689928451507    0.18000229799177    3.00519712496859
O           0.01761929872117   -1.41668724390320   -2.93176022471384
H          -0.12760255276721   -1.05628273402991   -3.80849878386071
H          -0.12361171545728   -0.65634401389127   -2.30374079523238
O          -1.48414610550300    2.91157697321411    1.59535867986415
H          -1.38029388247783    2.46794980230632    2.45319560047578
H          -0.61573616877973    2.81069158108708    1.18125393829792
O          -2.37194443668394    0.90322216654927    0.07341795055406
H          -1.92212138025005   -0.25245534804374    1.00135616554339
H          -2.23660424360788    1.72220478869779    0.60669809813186
H          -1.63271068657793    0.88930845098822   -0.56098833378238
N           2.32963329775875   -1.83675325333430   -1.75223720396262
H           1.45810252705868   -1.81768284157831   -2.35441867064240
H           2.15739301051749   -2.41504142956880   -0.93341340502358
H           3.15330395928647   -2.14144548433078   -2.26044382982623
