    26
        -50.44460287  Gyration_radius:  2.78513515456 Dipole_moment: 7.138
 S          -0.56230673199824   -1.17454464166704    1.39913792690207
O          -0.19448211225221   -1.74978945180699    0.12720374723516
O          -1.64500995682995   -0.24701919517849    1.37633629199896
O           0.70405331160200   -0.49201702726253    1.99627467213651
O          -0.82085566401963   -2.28965029417391    2.41095055251865
H          -0.07260661093450   -2.97858571027936    2.23250329632528
H           0.85922924611682    0.39716592632558    1.54042315683408
O           0.98032469975072    1.73257623996029    0.76201310549612
H           1.48873758028469    2.39842502642923    1.22881154256634
O           0.51126956670748    2.16828402706229   -3.64961182316227
H           0.67379062360302    1.43994763121807   -3.03253730763640
H           0.50164464360836    1.78221673072084   -4.52638237515014
O           0.48156694750061    0.24544591725736   -1.56566491504426
H           0.22055988705061   -0.56891770992971   -1.10191981759166
H           0.86031811691383    0.81838056372935   -0.88425954897552
O          -1.73228956305562    1.91196060075662   -1.92303490083430
H          -1.18380958953739    1.11439390741655   -1.83592842456807
H          -1.24244473481880    2.46795121253877   -2.54277876571062
O          -1.47597181666882    2.39190011592898    0.69172955242109
H           0.01317750751592    2.07580871299459    0.73661568357239
H          -1.70137282552988    2.36461193796641   -0.26777802707390
H          -1.81204451910690    1.55365934317489    1.04719241117776
N           1.10540712076003   -3.75902875112979    1.60442883834872
H           2.01565166781730   -3.52157065343787    1.97497413656142
H           0.98926214904527   -3.31850514744354    0.69566674088963
H           1.03820106652373   -4.76309930119416    1.50563425077243
