    26
        -50.45875096  Gyration_radius:  2.52055976722 Dipole_moment: 10.932
 S          -0.04915757633121    0.33091169158121   -1.05864306999084
O          -0.08232415726614    1.71506639692021   -0.68152476624726
O          -1.21179954233646   -0.41994558444720   -0.58638048536421
O           1.20396258792599   -0.35604276903544   -0.38722661085227
O           0.18409064491223    0.10172112512491   -2.48780620641232
H           0.69598848820497   -1.18463515078583   -2.53689292428937
H           1.15348623135429   -0.17037539709207    0.59477412211907
O           0.93778228216127    0.06510483066306    2.14607513877264
H           1.08993904062690   -0.71023868165725    2.68868446970723
O           1.31338024656880    2.81670460249724    1.45891813041825
H           1.43298053885116    1.98818382079025    1.93601438075963
H           1.00928487964060    2.55811941749417    0.57589009148475
O          -0.97217523861084   -2.96795314019518   -0.91034082859214
H          -1.82134647048725   -3.28719941287350   -1.22108504536233
H          -1.11266629959760   -2.00609270949401   -0.69166514056474
O          -1.46631894965403    3.04626680345294    1.34379673147420
H          -1.27860809933657    2.80416544597542    0.42618420915938
H          -0.59438672798718    3.28399611477794    1.69949481042816
O          -1.58193308469518    0.44408308937699    1.93797810818934
H          -1.69176300986963    1.42152112938460    1.86049547899343
H          -1.64825041596040    0.10888777030754    1.02567959580040
H          -0.06493101325395    0.23243447338938    2.16873556050181
N           1.07444374302238   -2.23773407460419   -2.39025990380685
H           0.29003264920846   -2.71947825601377   -1.86534809002139
H           1.88520374621431   -2.15888596220008   -1.78127827708410
H           1.30508552668613   -2.69858556330465   -3.26426945918929
