    26
        -50.44460300  Gyration_radius:  2.78504972264 Dipole_moment: 7.134
 S           1.72629400383618   -0.46417009037894    0.67658200221937
O           1.25468095181236    0.39513744664404    1.71206814832647
O           1.63297383753927    0.05380407023281   -0.66771896265270
O           0.95292585242633   -1.81558872307277    0.71992511093967
O           3.15893977083701   -0.91698269546097    0.95388269278123
H           3.45340708055055   -1.38804120318643    0.08360695816374
H          -0.04156972622986   -1.63831510823074    0.76379360035515
O          -1.53486532457554   -1.22519904533188    0.82738015578674
H          -2.10189259516610   -1.90810234458576    1.19051399260033
O          -1.83307967437179    2.57628337785166    0.59227338288101
H          -2.70571895679458    2.59549032632116    0.17827186610906
H          -1.28065418681563    2.08998446574817   -0.04247200830253
O          -3.41961461194871    1.94204197742775   -1.67848175187746
H          -3.40845274787708    2.50601625066882   -2.45284229775926
H          -2.60605187862145    1.41781586339402   -1.71076675947174
O          -0.95399426930691    0.62440695418579   -1.20290414675576
H          -1.31780252438864   -0.09555461828296   -0.66875254866478
H           0.01203280170834    0.52427876821085   -1.14647814683487
O          -1.35365589155388    0.72269447152106    2.45415853124376
H          -1.53567605626975   -0.45875959537474    1.51025057050760
H          -0.38354795523518    0.74896864427751    2.46717932536982
H          -1.61740138690537    1.50585212311192    1.91618932671700
N           3.52220670736384   -1.90754385139102   -1.37158392301107
H           4.38012046622355   -1.80010433717874   -1.89584469104730
H           2.83272980639971   -1.23930248025579   -1.70503623459880
H           3.16766651740005   -2.84511065680361   -1.50319420297996
