    26
        -50.45875113  Gyration_radius:  2.5210089352 Dipole_moment: 10.923
 S           0.62778081361048    0.01433576458528   -0.91405685913395
O           0.61847747703262    1.44846798320403   -0.96356073592714
O          -0.70049384175318   -0.57388726880332   -1.08066655869359
O           1.12367379873684   -0.44866546680868    0.51176835915180
O           1.60108833265880   -0.61261203889218   -1.81358180028256
H           1.81989770910382   -1.85792724286498   -1.24731909533086
H           0.54787577787079    0.01015285140316    1.18938892244852
O          -0.47958188143765    0.67931490334768    2.19200905596430
H          -0.80323227681147    0.09313116050647    2.87789279416355
O           0.68635466981116    3.11977462845878    1.26014251391041
H           0.90902432475836    2.61897846894721    0.46096160230086
H           0.36523947842667    2.46240126233894    1.88717785005777
O          -0.75522059673432   -3.11027752487980   -0.61092531849975
H          -0.83052500319772   -2.12592572912984   -0.74483930476342
H          -1.30452938569571   -3.50450722956711   -1.29091475914354
O          -1.42919401665289    3.29940705767653   -0.55244886933848
H          -0.89756308769486    3.63104130837553    0.18966800403239
H          -0.79074867113880    2.80571573507125   -1.08583983703288
O          -2.30705701536961    0.97470074134348    0.42886317997153
H          -1.89021108341155    0.39249824497075   -0.23166597819367
H          -1.26516707972903    0.84271684405317    1.56737030738457
H          -2.18383453307839    1.88900683383363    0.07905357435995
N           1.85764383274505   -2.82389380824537   -0.66505540077447
H           0.84701390000117   -3.14030531611369   -0.63085183484671
H           2.16066716958534   -2.57042767159070    0.27221318863830
H           2.47262119832151   -3.51321448127665   -1.08478301045040
