    26
        -50.46455204  Gyration_radius:  2.42095657472 Dipole_moment: 4.951
 S           1.25979185230454   -0.14841403561951    0.37829309363014
O           0.63818140027042   -0.56715294245639    1.62999666879133
O           1.30814395113048    1.29837231906831    0.23912873728539
O           0.55803591553121   -0.74443797115133   -0.76733326775660
O           2.69951314533085   -0.71266795651618    0.38752226545230
H           3.09347472955282   -0.31333380741055   -0.43965013741992
H          -0.82277548192952   -0.03472658932265   -1.19281266704153
O          -1.70533449084044    0.38265795923929   -1.37550006793208
H          -1.87588111357422    0.24985093721097   -2.30893583507874
O          -1.56130637538372    0.49859345308059    2.22086530687744
H          -2.19827974319558   -0.15653137578789    1.66018030111995
H          -0.63546918427985    0.06194633513032    2.13355914821409
O          -0.77509105227802   -2.69266500804612    0.48585498925359
H          -0.24906166273515   -2.10328037128322   -0.09082772730452
H          -0.31861769096417   -2.66541329159947    1.33170823773208
O          -2.80911521936678   -1.01905555723834    0.68274685983803
H          -2.65953121499654   -0.52927570740266   -0.14832051321708
H          -2.18771204407723   -1.79095817513284    0.63511675178916
O          -1.10512715628174    2.28867298754040    0.51653164367825
H          -0.14037245726119    2.09663659984176    0.43584609520695
H          -1.50268626196076    1.88762730954428   -0.27354697330102
H          -1.46554443660536    1.35406261541124    1.62451790532009
N           3.18512856010677    0.65410460769569   -1.77122578816954
H           2.54706769309050    1.31148870430237   -1.33036985463058
H           2.71802990819783    0.24265401033802   -2.56831679370009
H           4.00453843023072    1.15124496053318   -2.09502837859364
