    26
        -50.46970784  Gyration_radius:  2.55329851377 Dipole_moment: 5.554
 S           0.97190574421035    0.18261065917713   -0.52195576222676
O          -0.23658322499176   -0.61396672615905   -0.73225759799730
O           1.50726919597453   -0.00284431380947    0.82492772419483
O           2.05904934466826   -0.31652278345123   -1.50312787540873
O           0.70442180525426    1.59379152704644   -0.79148353938828
O          -1.68801988171980    1.54712318895361    0.31830266014267
H          -1.97484271431589    0.73743086380419   -0.11776712460392
H          -0.85185871209534    1.77630778848803   -0.14385255507800
O           0.06372960857755    1.90182401006653   -3.34703084662346
H           0.69367100112314    2.50330336894103   -3.74729139406591
H           0.27414115347061    1.88462424444286   -2.38856208370041
O          -1.18554719222733   -1.74068102412211    3.13103041151392
H          -0.71389053474022   -2.12841164943952    2.34635153588224
H          -0.93778667796578   -2.27834023708722    3.88441108832593
O           0.30938345608031   -2.45571618415180    1.08337185913516
H          -0.06669313227079   -1.96388313173742    0.32670548785820
H           1.13498078489414   -1.98350884978021    1.24913750797614
O           0.37368865296865   -0.76184580521132   -3.37876368361673
H           1.56249239060702   -0.55404517739993   -2.34507039229268
H          -0.23029010913599   -0.97362504977944   -2.65223427237852
H           0.17705439609332    0.16939657553455   -3.61513585656659
N          -0.39389877640735    0.70893126376266    2.45732436887749
H          -1.06311243114643    1.10600026687017    1.73428403198434
H          -0.78157569641924   -0.18416490375527    2.85702427358836
H           0.47423972650694    0.45770506649744    1.89203628458795
H          -0.18192817699272    1.38850701232329    3.17962572988205
