    26
        -50.46258508  Gyration_radius:  2.40429235584 Dipole_moment: 3.549
 S          -1.07891088334421   -0.27752434527364    1.47068681047628
O          -1.82140910549986   -0.77009376988326    0.31411747602274
O          -0.57222925240608    1.05817987996630    1.25897723522349
O          -0.07070908571106   -1.23568437360692    1.89251327938036
O          -2.11262423117999   -0.17890029453074    2.66055403639324
H          -2.23545048741986   -1.09491935789682    2.88347773150180
H           0.18163743654368   -2.10671292957751    0.47732288021659
O           0.30666298362790   -2.53456011392886   -0.39454729428226
H          -0.57464879038111   -2.79216264884199   -0.67347446968035
O           2.61554984006111   -1.12474349505426    1.41319913102362
H           2.69773161504076   -1.91151785092322    0.86889470755043
H           1.71981533100339   -1.16080931597782    1.79058401798000
O           1.79342713791173    0.99769214471804   -0.04928382871421
H           2.33763656568426    0.36821092078406    0.46372171574242
H           0.98770446053935    1.10915580140797    0.48679466242003
O          -1.36372718152121    0.41185971779235   -1.88509204186304
H          -1.65572030325778   -0.05885055118326   -1.03349034867656
H          -1.17477689513943    1.42868380376745   -1.59531308195597
O           0.93780670333138   -0.50260249839862   -2.01687970711080
H           0.83819660769240   -1.35129582550234   -1.52928211522170
H          -0.38085858740333    0.00460244629226   -2.06604154959463
H           1.38296471908992    0.11287633030957   -1.37232218762140
N          -0.78073096007677    2.71078457380722   -0.99738219683624
H          -0.79102584339215    2.42332847201228   -0.01761890461006
H          -1.36168135605005    3.53002717991252   -1.11370740581814
H           0.17536956226151    2.94497609981146   -1.23640854194518
