    26
        -50.46258520  Gyration_radius:  2.40429911485 Dipole_moment: 3.542
 S           0.11550292105050    1.82521270583807    0.24643840157385
O           0.21279423292504    1.32925522561416   -1.10642400265211
O           1.11758814694492    1.22465903390197    1.12194653355149
O          -1.21446928862389    1.72041482917882    0.82360876964719
O           0.44128381810177    3.36907527605650    0.18046048408685
H           0.14199598671588    3.66353357389537    1.03347779969486
H          -1.03051903956268    0.41117002296294    1.86158911992731
O          -0.85900858728725   -0.38477242403943    2.40559389601500
H          -0.08130994346998   -0.16787897577953    2.92431607048403
O           2.14164336836843   -0.95171593787795    0.31122642412843
H           2.16508317226208   -0.84207498229093   -0.75744173838115
H           1.83611603849207   -0.05006600065445    0.66591148206825
O          -3.17417470816637   -0.05778491855791    0.14702197219557
H          -3.22831002650044   -0.53469642473800    0.97876800507004
H          -2.62330970689152    0.72276600658402    0.32945407664244
O          -1.14692640211049   -0.99199609632430   -1.38178588181115
H          -0.69850408117922   -0.12727047499591   -1.39138530259480
H          -2.03345479714526   -0.79858001043272   -1.01806381192461
O           0.01687859770849   -2.18987437034250    0.63494214613876
H          -0.46170420483187   -1.88656626379531   -0.18430357258581
H           1.28844062475820   -1.58697747470292    0.48974512865665
H          -0.39434236713667   -1.68265309606936    1.37078250876849
N           1.95645172656661   -0.58308332962537   -2.18695467394329
H           2.74552868083958   -0.42660429160553   -2.79937372884084
H           1.41638875725396    0.27928450638031   -2.10127396187425
H           1.35033708092013   -1.28277609858029   -2.59827615403803
