    26
        -50.46258470  Gyration_radius:  2.40438440797 Dipole_moment: 3.562
 S           0.56576309091397    1.13471974359515   -1.34005139677453
O          -0.69529357082286    1.67746809800312   -0.84326714425824
O           0.46231650101642   -0.27011033632382   -1.65810796841567
O           1.66449539345235    1.46234824961048   -0.44683183333142
O           0.87097080339908    1.87814173131842   -2.69954651125215
H           1.12635064116166    2.74100831843205   -2.39274409435458
H           0.85736789836218    1.71780849459598    1.00439713949422
O           0.32320611298400    1.80330381339451    1.82070295423898
H          -0.37161922295627    2.42704380670845    1.59913325925059
O           0.84816783259032   -1.78779488849572    0.54657083486710
H           1.68519452419272   -1.45531371299636    0.92670218559134
H           0.77230306958421   -1.32445850012799   -0.30694794784601
O           2.86070485161626   -0.18171875634355    1.37727649622713
H           2.63383679684590    0.41452879536913    0.64321673559007
H           2.61912649809107    0.29120493316995    2.17734569996276
O          -2.36220998510452   -0.01936781773907    0.04274115330261
H          -2.20377562537901   -0.88195338713374   -0.57703630161171
H          -1.78232801673431    0.71026784773734   -0.36155886322423
O          -0.93915518666757   -0.54857454151760    2.00358725490216
H          -0.27810384839661   -1.14430383369599    1.55555843918289
H          -0.46434481229377    0.30307631989179    2.13484037267541
H          -1.84925749410635   -0.25970255162945    0.96149487535017
N          -1.72854755899568   -2.00204432869562   -1.39978421603910
H          -1.39262744009170   -2.76221012350824   -0.82064353929551
H          -0.91310813774169   -1.54473882188356   -1.81039994320218
H          -2.30943309491831   -2.37862854173859   -2.13664764103483
