    26
        -50.45154309  Gyration_radius:  2.60002762969 Dipole_moment: 6.027
 S           0.12436202389348   -0.27106649918664    0.89883906384870
O          -1.35278874011962   -0.34143526912356    0.90551094184953
O           0.58637493329454    0.99424147961997    1.42112347837974
O           0.63142568486123   -0.51209449811032   -0.45492446116013
O           0.64110971915107   -1.38621183607364    1.82096865146721
H           0.23227710780502   -2.24571378666764    1.50561472541747
H           0.08272957518297    0.63645141475367   -1.38433296073690
O          -0.35480868634163    1.37502909734002   -1.89560987250293
H          -0.60624787556246    1.00610800700013   -2.74406331281260
O          -0.84372010505110    3.30434439708713    1.49355162659756
H          -0.14312362903419    3.60748349866226    0.87440908269918
H          -0.40703219201765    2.58282034462414    1.97486860608835
O           1.18766000754667    3.10280047216151   -0.22940863015020
H           0.85599241387060    2.76298401260817   -1.06775107989440
H           1.29119667344031    2.32234632025702    0.34130555811428
O          -0.17172347225505   -3.66986846676135    0.95093300676827
H           0.30218507024580   -4.33847037838462    1.45017269157471
H           0.26261034743806   -3.61394244152679    0.05472319793798
O          -2.13122441028041    1.76771157393436   -0.03399939066905
H          -1.71120549094733    2.48044704754350    0.61310955087018
H          -1.55463011417466    1.75965206063423   -0.85332036249714
H          -1.87349738400608    0.78070537139114    0.43660182683663
N           1.12185398727756   -3.17931349839893   -1.32278850517209
H           0.69078565897084   -3.36021688349319   -2.22039706841788
H           2.10956923629560   -3.38482407581304   -1.40650933150923
H           1.02986965052542   -2.17996746407632   -1.12862704293515
