    26
        -50.46258445  Gyration_radius:  2.40439931257 Dipole_moment: 3.562
 S          -0.34915190301276   -1.53783156260578    0.95683841798897
O          -1.24925359917176   -1.20811836068000   -0.12322422175789
O          -0.24748025223743   -0.45751985997982    1.93373663180844
O           0.96682665100524   -1.97466575019170    0.52109800907831
O          -0.99066013736041   -2.76769250151741    1.71174260375958
H          -0.27016866836631   -3.05054130772127    2.26381144394567
H           1.90006903610242   -0.61492938829794    0.84184439041220
O           2.36544086805035    0.22955279957554    1.01290424983540
H           2.16175061193735    0.44518025539023    1.92553690882713
O          -0.96403588723365    1.83978985171174    1.12603240314056
H          -0.73202497086576    0.94367727268037    1.54457913498403
H          -1.76317343782439    1.63251194597642    0.43935613143921
O           0.02727726675686    0.20687358327207   -2.04169970511755
H          -0.48937814310664   -0.35900464983376   -1.44019077360565
H           0.82408155030245   -0.32224038132760   -2.24369120987034
O           2.22164867467095   -1.36075924577865   -1.82559432757582
H           1.79483220256758   -1.78245153509961   -1.06013392171638
H           2.96591532588816   -0.87046402930678   -1.46815911452661
O           0.97556857017342    2.01970530917733   -0.40861718804432
H          -0.11629926401354    2.03955793956842    0.48812558154766
H           1.64448077485434    1.46936281333570    0.05802651172905
H           0.63899423267420    1.44239826571887   -1.14761475503010
N          -2.70219402575305    1.14691400886422   -0.58056209121269
H          -2.42244391760527    1.44928481446600   -1.50598670897841
H          -3.69689122619674    1.29138143696237   -0.47138365365615
H          -2.49373033225376    0.15002827563627   -0.50677476739902
