    26
        -50.45875080  Gyration_radius:  2.52036800382 Dipole_moment: 10.931
 S          -0.15048435528582    0.04131115864053   -1.09965018074698
O          -0.34907086740954    1.46223678113202   -1.07467046804252
O          -1.17425805135086   -0.69332304079223   -0.35758234640366
O           1.21825988497305   -0.30033798346616   -0.39054719728230
O           0.03353018356746   -0.51758212651364   -2.44246330607318
H           0.70914858586349   -1.70564062605615   -2.21572831483017
H           1.19560550908136    0.12149573528078    0.51663556836747
O           1.03376785495245    0.71683980711262    1.97502399385976
H           1.31532611573672    0.12687620003256    2.67607238884136
O           1.00464048698912    3.22455518644112    0.59861047234769
H           1.25895316769527    2.56550058602550    1.25385822371954
H           0.68920539993122    2.71519248557452   -0.16311137638836
O          -0.61512124848484   -3.19437731122326   -0.06136922928553
H          -1.42968227837004   -3.67824928089781   -0.20957549595046
H          -0.87066175904033   -2.23151903431352   -0.07556694661290
O          -1.78225985647657    3.10236858028868    0.67209055717679
H          -0.92931428959746    3.51801001450625    0.88014314921578
H          -1.61822991279805    2.65809618252035   -0.17133865811193
O          -1.52121134992754    0.74163545955032    1.89561987221740
H          -1.76275356952443    1.64781002432750    1.58897951713997
H          -1.59137873304663    0.17886417200508    1.10353417919591
H           0.02029835441244    0.76935975381560    2.04137659948195
N           1.23276298120097   -2.63439097938967   -1.84578576702348
H           0.54918751299784   -3.05392764515084   -1.15332004965467
H           2.05623325821924   -2.30736923871568   -1.34627483114203
H           1.47750697569505   -3.27343485074104   -2.59496035402386
