    26
        -50.46417615  Gyration_radius:  2.5476523852 Dipole_moment: 4.573
 S          -0.23240428813902   -0.77641172211753    0.54556556047152
O          -1.35487496644483   -1.69467630743310    0.37787751806224
O           0.83026246705006   -1.20305558693085   -0.53473784150985
O          -0.63136781268964    0.58215610676032    0.16575119425389
O           0.39186903439723   -0.84978879273095    1.84663338335222
O          -0.25287825312083    0.14808076791188   -2.60591535036568
H           0.29679001659852   -0.39842908834284   -2.01573356485652
H          -0.29009991895441    1.00572563755130   -2.17020048624234
O           1.06715419506649    1.71493895728024    1.92516316967727
H           0.45557091284064    1.78627051018131    1.17896077800458
H           0.88452037749001    0.81337611859783    2.24481506591991
O          -3.13540435826005    1.26549227995812   -0.29273475066339
H          -2.18489471522848    1.13234629813902   -0.06725106515870
H          -3.60651584068764    1.26238347682045    0.54175143717842
O           3.49776492644108    1.18678802876618    0.96701504052860
H           2.62365686707952    1.49982389387130    1.30282860009572
H           4.15637764553002    1.53433517997213    1.57009113808033
O           2.85361875140313   -1.41276776460661    0.96365812275793
H           2.20871276539965   -1.38219615341548    1.68783355079850
H           1.70851006349381   -1.35589841227687   -0.04404759400257
H           3.23935715748160   -0.50752103738134    0.90959780691830
N          -2.53627342433068   -0.88777916046197   -1.73281834640911
H          -3.12230365293711   -1.52157273702621   -2.26402576002297
H          -3.05827205070973   -0.06836024837600   -1.35054768819877
H          -2.08853866610747   -1.35550611425186   -0.86004842586765
H          -1.72033722265203   -0.51775412045448   -2.28948149279640
