    26
        -50.46258506  Gyration_radius:  2.40423947818 Dipole_moment: 3.549
 S          -0.75117667300138   -0.29841297915348   -1.65846967328244
O          -0.10773566789898    0.97556320879323   -1.43795462779981
O          -1.80000479665391   -0.55823415009001   -0.67655527738605
O           0.16811590550226   -1.42027310027307   -1.75196833562952
O          -1.46474362811405   -0.20015021564182   -3.06393941484703
H          -1.67262325255711   -1.11159610875643   -3.23703208364065
H          -0.03855787603001   -2.15256682722622   -0.25336760654671
O          -0.17861818535851   -2.49258144332042    0.65418429973008
H          -1.12870596721689   -2.60078453441298    0.73472790399736
O           2.66316496165802   -1.60517202870719   -0.65751831260000
H           2.50035712950046   -2.32994896246859   -0.04898901655219
H           1.88014196879469   -1.56694251024657   -1.23329223708633
O           1.86725536254721    0.75615433300548    0.39582597881220
H           1.22870658351924    0.91032203036370   -0.32353462590146
H           2.41025605072096    0.00795449703262    0.07806568915184
O          -1.67246282269298    0.79339370640685    1.46824569810083
H          -1.83428272809081    0.27206701123453    0.61149781338375
H          -1.27119367863386    1.73829169976808    1.15264674647074
O           0.37445565909053   -0.39106607141258    2.21499618468277
H           0.25874614752337   -1.26877873336806    1.78574940877337
H           1.04105226429179    0.08562339020647    1.64849781122040
H          -0.82865380957594    0.28503174644083    1.90919779849445
N          -0.56280355466543    2.88362951362109    0.56673354090908
H           0.33946730263793    3.01735519705641    1.00735617746161
H          -1.02353680987359    3.77905908937191    0.47646030507737
H          -0.39661988542503    2.49206226177657   -0.36156411499399
