    26
        -50.46258395  Gyration_radius:  2.40435246139 Dipole_moment: 3.570
 S           0.99615451070600   -1.48559060070689    0.45102794414529
O           0.50431495275623   -0.92185593685302    1.70491595758914
O           1.62858133083787   -0.48825872521525   -0.38004643031876
O          -0.04182119424014   -2.24840010324481   -0.22211489450774
O           2.12231672283370   -2.52339887699996    0.83652669615500
H           1.61005147808556   -3.23249974123142    1.20891671552605
H          -1.43618217821734   -1.56785524553679    0.42153170675767
O          -2.19986831050875   -1.08973800022467    0.80523345983859
H          -2.06179816941014   -1.12164721818548    1.75432736172343
O           0.17292384059347    1.59463284286687    1.73397326883116
H           0.35053576790930    0.59851317589234    1.82469247930769
H           0.95267609757897    1.96400556059478    1.09512406365544
O          -1.54663773290112   -1.46517457578632   -2.36234541199113
H          -2.40883094063001   -1.46268428386341   -1.93957164957078
H          -0.94847841839908   -1.90304671872086   -1.73274575760466
O          -0.20609947237758    0.83138846090374   -1.86482715489542
H          -0.72264123726642    0.12317728141972   -2.29764446258585
H           0.52539465302635    0.36012841345647   -1.42682836695674
O          -1.73895501149153    1.46521001310048    0.16015453550009
H          -1.22964847673964    1.34874936733990   -0.68825140689458
H          -2.09892007307097    0.57244819909292    0.36393103346238
H          -0.71126542116410    1.63077048286626    1.11536689338664
N           1.95902241075437    2.26113203566170    0.06653241395389
H           2.18442684726613    1.30088495480894   -0.19758783055718
H           2.80935207121215    2.75189024374259    0.30794349523007
H           1.53539595283266    2.70721898480889   -0.73823465916159
