    26
        -50.45875083  Gyration_radius:  2.52037550657 Dipole_moment: 10.929
 S           0.01488279188483    1.10964934867532   -0.04951035210617
O          -0.71941685401350    0.54608082953472    1.08251463039845
O          -0.74778050505628    1.12106027019719   -1.26504061778268
O           1.27825671821361    0.18239004616827   -0.24268232065644
O           0.61333884203041    2.40211060424976    0.29812902985098
H           1.67289835236906    2.06371532173681    1.12427785378098
H           0.94749603178944   -0.70769027904611   -0.55849016059804
O           0.33684418689034   -2.11796716431181   -0.94067941693043
H           0.72426232059471   -2.85797280863833   -0.47037576171014
O           0.76024297160618    0.15772650620927    3.15995775706152
H           0.24738189727460    0.43860240152273    3.91997846210137
H           0.13918961589624    0.21566873066824    2.38309914816963
O          -2.97354449556639   -0.36089481626167   -2.06828304583670
H          -2.40794930926071   -0.70721340906714   -2.77801249057862
H          -2.51531480325306    0.44233584360703   -1.78465787535793
O          -0.50393325893894   -0.75009140259569   -3.30863058076437
H          -0.46454708341871    0.05256283794551   -2.76701656763550
H          -0.10567617064975   -1.43945367973083   -2.76594108614958
O          -1.96070760959052   -1.61607335111219    0.06175737209300
H          -0.60678249389169   -2.01526738188721   -0.57582033545153
H          -1.67328199496475   -0.82454516831948    0.55147553982524
H          -2.50200097666742   -1.27186111141129   -0.68799524459282
N           2.46719633672102    1.60982477904877    1.78497206595935
H           1.91778280974164    1.04026994401972    2.48959224758825
H           3.06319111836980    2.30633718519154    2.21987713393739
H           2.99797155186083    0.98069592360802    1.18750463540388
