    26
        -50.46445958  Gyration_radius:  2.39256941317 Dipole_moment: 4.512
 S           1.34932858266977    0.82785320893989    0.58118295112995
O           0.03980805914513    0.52690150794955    1.15077657660824
O           1.36948772397380    0.59540586563412   -0.86075625749105
O           2.38480837403596   -0.13833595095681    1.23089943687411
O           1.73004703487852    2.19429778253082    0.91813594938628
H           0.36422973765579    2.81852467573855    0.81482981296434
H           2.05497204056853   -1.05614944279709    1.05465329125097
O           1.34195505501323   -2.53640938921644    0.81590194329169
H           1.63870455193101   -3.13765191486599    1.50123311415018
O           0.60107122165203   -1.75874486761515   -1.79965340097259
H           0.98487351338431   -0.88163936902803   -1.58874450870078
H           0.93895335173805   -2.33981579221039   -1.10779203118809
O          -1.90316157365979   -1.06797594035791   -1.36365847018420
H          -2.44518130663255   -1.33792790250874   -2.10615553624121
H          -0.97664985977456   -1.36313050211550   -1.57984138438666
O          -1.01189181356772    1.53481871571162   -1.42866066065688
H          -1.51481019113695    0.70355319960242   -1.31105267826205
H          -0.07415543110672    1.23560500621470   -1.40229331752365
O          -1.12343106312923   -1.81782501176277    1.22630890664565
H           0.37075352650975   -2.35663950108932    0.99898671176262
H          -0.78088176654982   -0.90484747282071    1.34440575492508
H          -1.61834741925486   -1.76480012979214    0.39552074654642
N          -0.69502765637199    3.01133447623228    0.67636260071194
H          -0.94634800750971    2.43953062766852   -0.22072739172542
H          -0.91183361739359    3.99995012624374    0.59554488169699
H          -1.16727308702760    2.57411797469252    1.46459296939096
