    26
        -50.47136210  Gyration_radius:  2.44325724942 Dipole_moment: 2.090
 S           0.97262988165906    1.80351594282423   -0.33517773593181
O           0.85739158496159    1.09763136734564   -1.58049000379398
O           1.80897479145414    1.10488803696058    0.64171273350741
O          -0.31158567689693    2.16850701860180    0.25133429545953
O           1.71817138790541    3.16695092753721   -0.63610352022776
H           1.78441183261421    3.53378218381249    0.23848771603474
H          -1.55174779155481    1.25137193557560   -0.20284140892083
O          -2.32710891036371    0.67486877564460   -0.43274996560736
H          -3.07768449788300    1.26505353150279   -0.51318655346700
O          -0.01181898927780    0.50811343812839    2.46645630991092
H           0.75026590047998    0.66458118415600    1.87201143771012
H          -0.56773894334978    1.28026744812364    2.32473922905765
O           2.41279251560714   -1.39160977114100    0.14987357869004
H           2.24742429951801   -0.42086555984032    0.20848593462310
H           2.76435483194774   -1.64053127327939    1.00721796783610
O          -0.93215663318481   -0.66207968528882   -2.38886120965953
H          -0.20926715745950   -0.00446209500131   -2.32315649442405
H          -1.64933293789655   -0.25937580509878   -1.86945861951201
O          -1.56766800646038   -1.32420382256064    1.30406526235706
H          -0.63782398075434   -2.02566900154908    0.25498354469640
H          -0.98798834743952   -0.76142852027191    1.86808050668552
H          -2.05215359533966   -0.69093638917647    0.74681325910849
N          -0.00638670556569   -2.30165492087172   -0.56233619201563
H          -0.05494842569878   -3.29592287600331   -0.75254475666159
H           0.97651082381721   -2.01031695672966   -0.33581194621130
H          -0.34751725106690   -1.73047512373516   -1.40154337926059
