    26
        -50.45206065  Gyration_radius:  2.50562266595 Dipole_moment: 3.911
 S           1.51601754110026   -0.03373246937644    0.26532792423970
O           1.13355461322533   -0.00001453255382    1.65739094211037
O           0.97481416241524    1.11514012847080   -0.48487447768454
O           1.10603320586107   -1.28115547552790   -0.37854932033858
O           3.06140712414962    0.07323425090231    0.18710483847468
H           3.22107182995589    0.02430709633781   -0.79331347114280
H          -0.27673361204793   -1.60932256364939    0.26859321338870
O          -1.19409975912151   -1.79468988303395    0.61946843394452
H          -1.11134641339481   -2.60151959307640    1.13002749391220
O          -0.32120167564488    1.70705233350858    2.99433881085750
H          -0.18794536436057    1.48576354706170    3.91745424356137
H           0.33413572118547    1.16976965853975    2.49181075659539
O          -2.32772093199399   -0.89397971594272   -1.66907428556794
H          -1.93509901270518   -1.39859127287535   -0.92852418029966
H          -3.28015099170884   -0.95978261784734   -1.57225900545818
O          -1.46286510025740    1.37123845138982   -0.74455221180948
H          -0.39532446660452    1.30848360403217   -0.65109900718665
H          -1.75610451744878    0.56654270815953   -1.27628471194175
O          -2.19493366795023    0.60435358421697    1.51271978373012
H          -1.59681135656055    1.07083423188119    2.14984804515549
H          -1.82874407339255    1.16636147601846    0.23748559361249
H          -1.84166725868675   -0.30019779268885    1.41483118993885
N           2.77032857435147   -0.16317539311984   -2.39439532518955
H           2.07567102335038   -0.85456599824054   -2.12703328889752
H           3.24141438525964   -0.47074908021705   -3.23567480084313
H           2.27630001101486    0.69839534764493   -2.59076721314760
