    26
        -50.45697757  Gyration_radius:  2.52653204996 Dipole_moment: 3.264
 S           0.18205201647578    0.83302774472075   -0.73642951743811
O          -1.11796294904458    0.70576221055647   -1.39797905967217
O           0.91488762378795   -0.42756623283599   -0.80902403597370
O           0.01662237222315    1.25265158924422    0.65665077952726
O           0.96749897989939    1.92050682310329   -1.48674099676359
H           1.62735331757793    2.25836364421256   -0.80301287642692
H          -0.91001411739013    0.20515352500829    1.36006041220985
O          -1.49577894839627   -0.49440033588203    1.76872192915111
H          -1.48064183802070   -0.33373536404234    2.71385366777895
O           2.42929618189635    2.46083376466687    0.52813714133641
H           1.64136923548996    2.20181704499556    1.02754130777844
H           3.00851517826554    1.65696435187193    0.50911256064536
O          -3.64179396408825   -0.24570121077103    0.15698301861299
H          -3.50698473790732    0.63506233257156   -0.20554392481215
H          -2.97612963537237   -0.34195906692614    0.87113914849697
O          -2.24929558839386   -1.48152417611741   -1.58043144347984
H          -2.99277479685358   -1.16104967190017   -0.95541707751557
H          -1.71991701870499   -0.57751571171401   -1.69242965955067
O          -0.56888216645268   -2.38987934377158    0.02353636473104
H          -1.58445133223105   -2.03637742650462   -0.96290838397142
H           0.13785361382157   -1.77506560743332   -0.30006982944086
H          -0.89103568074468   -1.97834679842308    0.84437703212372
N           3.53631255884545    0.03739319169858    0.21285306301438
H           4.24719553343279   -0.04639625727954   -0.50285679185178
H           2.65277902421597   -0.27103497195276   -0.19659256256348
H           3.77392713767642   -0.60698406707396    0.95646973407997
