    26
        -50.45697780  Gyration_radius:  2.52692909825 Dipole_moment: 3.277
 S          -0.87977952276489   -0.20934661834691    0.67765073277737
O          -0.98155942927176   -0.34261087406919   -0.77264429300544
O          -1.07074561988546    1.18656763074267    1.07599710811997
O           0.41116486012560   -0.71243961592299    1.15147578979950
O          -1.99899419147022   -1.02713984489095    1.34196886674199
H          -1.61935891554007   -1.95994611487373    1.39351250528768
H           1.52475484318418    0.22637864362375    0.57822867995782
O           2.20135099434924    0.84622791132282    0.18129326151440
H           3.05607396593422    0.44111906755960    0.33805904091275
O           1.33744874553987    3.16556304318364    1.24726463474094
H           1.80739446335621    2.37638313947867    0.90237603560192
H           0.82329774942419    2.85391667925186    1.99809333409305
O          -0.54103385108850    3.03942422224423   -0.46783360250188
H          -0.95387024462425    2.28663540743208    0.14304770163015
H           0.22975104239031    3.33837257461735    0.13429175286868
O          -0.65634409270210   -3.19093395975578    1.27478393329832
H           0.09920606623688   -2.59261574892133    1.36675925260192
H          -0.72906181647034   -3.38069567662003    0.30480564218752
O           0.56956753424906    1.37248824454593   -1.95452444548964
H          -0.05172340984211    0.64977372563082   -1.68284868080229
H          -0.08761080379685    2.45913336603218   -1.23492673854931
H           1.37594955020409    1.20668569203540   -1.43581014465580
N          -0.91365769223306   -3.12474824946921   -1.39497153955394
H          -0.18671861020277   -3.34551497186406   -2.06399604128028
H          -0.97455478248193   -2.10746891139175   -1.32517979994110
H          -1.79094681261696   -3.45520877157169   -1.77687298636544
