    26
        -50.45697777  Gyration_radius:  2.52700836571 Dipole_moment: 3.279
 S           1.02324066537769   -0.12058892035055   -0.46535991121460
O           0.62275837623293   -0.88578074482136    0.71174121532622
O           1.50137810818017    1.20640427252070   -0.07262339574298
O          -0.08892196545242   -0.01245284716445   -1.41179100322885
O           2.19227412152814   -0.83568777439553   -1.16153509653828
H           1.74168518530074   -1.51945985446945   -1.75018243323797
H          -1.20895905211966    0.84404306215655   -0.73205665152021
O          -1.89959378415502    1.38631867513086   -0.25403662010678
H          -2.69628326758423    1.32770566639284   -0.78419765412295
O           0.65345149359968   -2.38084253253111   -2.47802064024524
H           0.37820691906782   -2.98097973687453   -1.73888607463225
H           0.04837704599396   -1.62606087526874   -2.43917341258540
O          -0.46173958870821    3.62202003490030    0.18737313750324
H          -1.10980075447874    2.91487409041214   -0.01902460528672
H           0.22988309234991    3.54220700553742   -0.47631430016562
O           0.71576753751089    2.28317154903377    2.00594147212640
H           0.22881150582896    3.00215393327824    1.46554366323575
H           1.21430746147893    1.78703995230025    1.22130931995782
O          -1.01490269134725    0.49500528348109    2.18008530784234
H          -0.03151584122186    1.57097477240136    2.26068794187603
H          -1.61818714528049    0.78608978074706    1.47434684113603
H          -0.42994680015256   -0.17558118643034    1.74385560032793
N           0.02011495730658   -3.53899846202345   -0.14233349583569
H           0.22211580977911   -2.64615424168347    0.31091455580299
H           0.67550966117789   -4.21889332595718    0.22212239341529
H          -0.90803106021457   -3.82652757634202    0.14161383590279
