    26
        -50.46185071  Gyration_radius:  2.40106548854 Dipole_moment: 4.294
 S           0.58708128858742   -0.14971486686180   -1.71721399980924
O          -0.75488799720209    0.32535869206363   -1.94674149178394
O           0.62244340489777   -1.50770925226257   -1.19091886336865
O           1.37486714629453    0.74972552714713   -0.87798059423505
O           1.31235230805851   -0.18395491392398   -3.11763061597491
H           2.19309665420266   -0.44279416005739   -2.87026149025581
H           1.11802441130343    0.45568394598796    0.74630205186185
O           0.82052908544655    0.26218435065117    1.66319122361847
H           1.01041178548171   -0.70754661945381    1.78734047123509
O           0.61536400586560    3.12528306043991    0.11885221373666
H           0.99963033159892    2.36654625079694   -0.36125127397793
H           0.93015749640252    3.04953474927611    1.02260359240313
O          -1.83377889974730   -1.60133327392121   -0.28801661508470
H          -0.90862158045092   -1.67715698209253   -0.62008366179584
H          -2.31853055555583   -1.22231014435273   -1.02748506859605
O          -1.80235308723080    2.11393339589166   -0.31591167855953
H          -1.02788973567646    2.69858511635162   -0.14370744163921
H          -1.52120656063824    1.55166086106068   -1.07142621675955
O          -1.66014667939355    0.31883293955070    1.40009475953386
H          -1.81067410595736    1.14751400270282    0.73271627157693
H          -1.80992004805290   -0.50804844153830    0.81948485959983
H          -0.61628132593176    0.32282396345688    1.61156967527237
N           1.12037587307450   -2.37429195422350    1.52925125573008
H           1.06759144364383   -2.30629428040716    0.51401814565831
H           0.32895600831000   -2.92560162993346    1.83678301301202
H           1.96340932266024   -2.88091033638096    1.76642148860343
