    26
        -50.46185048  Gyration_radius:  2.40090147517 Dipole_moment: 4.284
 S           0.14733075645815    1.08331617733084   -1.45690444327983
O           1.51586497437207    0.69978377929393   -1.13690618868323
O          -0.41010434940661    2.01013350824850   -0.50315693836875
O          -0.68668160003806   -0.09902255030543   -1.65789701264486
O           0.19417989772371    1.82339073129080   -2.84921249140676
H           0.50499388730045    1.13176324318262   -3.42275014006285
H          -0.37337520854986   -1.27210725251411   -0.51020396430939
O          -0.17863121964405   -1.84581665815746    0.26407040255298
H           0.80311107200637   -2.00593771919450    0.21519153942170
O           1.48542109774252    1.35862039625729    1.39726998210872
H           1.06436828810545    2.22279077012704    1.36053582049761
H           1.60743803255288    1.10965062343283    0.45116215597433
O          -3.07995581802831   -0.60603629995372   -0.54992627105795
H          -2.31074612784510   -0.39167198288988   -1.11227204397632
H          -2.96544036586160   -1.52273945452895   -0.28886169644753
O          -2.22204259419360    1.17694000085636    1.22231852061452
H          -1.66018450009560    1.66587209948261    0.58100010427040
H          -2.75673709355370    0.56574409015255    0.66387499636555
O          -0.38614600174533   -0.22274755349386    2.14807395996044
H           0.41825071867054    0.38085323955088    1.96973695984293
H          -1.23607215142958    0.36925096930924    1.86134036206252
H          -0.32473926030347   -0.98968832616837    1.41184937514449
N           2.46795102239682   -1.77027270033018    0.04259280740401
H           2.97415058227645   -1.54108328097618    0.88881666940681
H           2.37614157317995   -0.91191982198970   -0.49857903397302
H           3.03165439791721   -2.41906602801247   -0.49116343141328
