    26
        -50.44964770  Gyration_radius:  2.66677365707 Dipole_moment: 4.499
 S           0.58691430279144    1.34076873739681   -0.08843452635221
O           0.05817811971413    2.04295032418584    1.03552770778405
O          -0.36969492027577    0.53948264638918   -0.81560467661261
O           1.75417912107888    0.42117693426593    0.35294444379351
O           1.27759394197205    2.31451018921599   -1.03546084201960
H           1.69319677640591    1.78925381215555   -1.80603829731888
H           1.42441993327951   -0.20671239944787    1.06906632696314
O           0.82681297275869   -1.09362246556416    2.20011110091507
H           1.50512553797534   -1.30850497859105    2.84323046019399
O           2.20172833941682    1.04099350607374   -3.03011676696092
H           2.15605250644894    1.63426041987682   -3.78332185694868
H           1.52418059531795    0.31497665561612   -3.18968450135310
O          -1.31639090419722   -1.66157510354977    0.43764790687491
H          -1.08417408673341   -0.88007241431339   -0.09477963484251
H          -0.56007983309815   -1.80441457747608    1.02024286081095
O          -3.00364104393123   -0.55338026406389    2.21682775996367
H          -3.45205368310069   -1.25440838765358    2.69163951010400
H          -2.50916002146189   -0.98533547834989    1.48434559621475
O          -0.78258499480793    0.62080520941021    3.18717978823415
H          -1.67793222214444    0.30145529404693    2.93970964641005
H           0.18604904427859   -0.44794872324736    2.66713429380727
H          -0.57968480402337    1.33507517483806    2.55890517257173
N           0.26006915831107   -0.73086944729340   -3.28221584416737
H          -0.42833136595436   -0.68736391226475   -4.02311973573297
H          -0.17522976113299   -0.37617962959828   -2.43021559511163
H           0.48445730111035   -1.70532113205106   -3.12552030722820
