    26
        -50.45697776  Gyration_radius:  2.52681849674 Dipole_moment: 3.271
 S          -1.03719445745628   -0.27329624011771    0.35143018792750
O          -0.82461362028933    0.60661409861287   -0.79398592774955
O          -0.95569200261971    0.48658559622128    1.60031711186833
O          -0.06561254875904   -1.36888414498292    0.34603616754499
O          -2.45119005738813   -0.87124191859698    0.27649620513267
H          -2.34382012163411   -1.67204397293337   -0.32706946322123
H           1.35343419432205   -0.74765015923793    0.57016961241488
O           2.23953823514662   -0.30471985319513    0.70508153744977
H           2.90099392031808   -0.97806294154259    0.53678769679321
O           1.76417941898109    0.88506198363046    3.07614577680047
H           1.02387492383122    0.36735984005402    3.40662563429464
H           2.08756986416702    0.40764038999946    2.28246579623132
O           0.37821973831015    2.55928116466478    1.74860265820482
H           1.03424969650994    2.10629732064228    2.38920461235673
H          -0.34518500563665    1.79649343569552    1.67703378638885
O          -1.72589221025232   -2.76808270531834   -1.26130599353745
H          -0.88625481440525   -2.68073258008652   -0.78723246331860
H          -1.61565889246502   -2.24629302813990   -2.09658114213145
O           1.34655000663074    1.99671200880940   -0.48020024201982
H           0.83713086453445    2.50097600206334    0.79092117746031
H           1.93790165226376    1.26921134891724   -0.21958283428844
H           0.51568874858126    1.54535092271005   -0.77705226533958
N          -1.32889513086609   -0.91017109072665   -3.15546339376861
H          -0.54901559038584   -0.87897386086527   -3.80008989285044
H          -1.14119954070944   -0.24141855006425   -2.40647967254096
H          -2.14910722070701   -0.58601306620676   -3.65227465010881
