    26
        -50.47441269  Gyration_radius:  2.41120009872 Dipole_moment: 2.737
 S           1.08594023096980   -0.40892428788345   -1.25618880250867
O           1.93596056235125   -1.19815980442325   -0.40943208611362
O           0.95622035872758    0.97257836621111   -0.76074583571197
O          -0.25854640536709   -0.98238428670868   -1.40838115254147
O           1.74227327507489   -0.33091757615514   -2.66283974302367
H           1.07744668482527    0.12967882882238   -3.20982092948173
H          -0.74937638169755   -1.46587147299679    0.08493036919150
O          -1.07773693431160   -1.70563021231611    0.98493035613231
H          -1.53179225841267   -2.54371740388069    0.88182391639344
O           1.43097846532269   -1.51997964898218    2.16512493662683
H           1.83309318677598   -1.57357946369311    1.27388240170412
H           0.51167271886035   -1.79672709436008    2.01795921919937
O          -0.57531319561713    0.66276183617809   -3.47177657986061
H          -0.88552405403465    1.48124086050608   -3.07226530320882
H          -0.74619558269295   -0.04340422134154   -2.82307459092168
O          -1.66072051539992    1.39287114533351   -0.69572115116571
H          -0.68119205634481    1.35406122222869   -0.74722954304293
H          -1.95860187770631    0.52833471780477   -0.99453496919576
O          -1.65822869160433    0.84942527486728    1.94081760682818
H          -0.08843752244147    1.10341555740850    2.05364117150197
H          -1.84404970105840    1.22911528595343    1.05510024988833
H          -1.66273133193435   -0.11154660167125    1.80279908788681
N           0.96222858058608    1.04332946590800    1.88163370759130
H           1.47941295079565    1.76281695230334    2.37332113158606
H           1.09606320963307    1.11375940042468    0.83937038317622
H           1.26715630470072    0.05745318046195    2.15667614907251
