    26
        -50.47441274  Gyration_radius:  2.4111729025 Dipole_moment: 2.739
 S           0.61695384643299    1.59094804991333   -0.11575511517517
O          -0.36509384228265    1.06669712790708   -1.08088663715239
O           1.95144108922961    1.16605938100741   -0.43363276374860
O           0.20119457395497    1.19961084381872    1.23839010012216
O           0.56774985339391    3.14154084514871   -0.20936814554449
H          -0.32609533672349    3.37075510980534    0.10970464467992
H           0.67634822775061   -0.35885626386714    1.45974298432084
O           0.90444961512040   -1.31200376056540    1.58164063802673
H           1.23393846982327   -1.38836707349085    2.47875092423191
O           2.59131742819246   -1.39147262327597   -0.62467478032193
H           2.62989978678404   -0.41314585119948   -0.60716871465507
H           2.20779670830264   -1.62056749702643    0.23777811869467
O          -1.78890961115532    2.94235906152017    0.98217116980094
H          -1.18266442485989    2.28868874492481    1.37445740280570
H          -2.48224429350243    2.44149123297052    0.54156985838343
O          -2.23354551694862   -0.04399494023454    0.43710553830023
H          -1.84258624655585    0.12132804365310    1.30038011052680
H          -1.63083836636928    0.39508921758931   -0.20131029549361
O          -1.10537494126655   -2.45256933484392    0.02023446339562
H          -1.74374426900778   -1.72013992019549    0.15864340540713
H          -0.32365346444241   -1.93188971839516   -1.26804293400476
H          -0.42268940652401   -2.31553493021997    0.69679108620234
N           0.30509330371456   -1.35337246424213   -1.90602728437647
H           0.20840287131265   -1.60663830559515   -2.88244766967223
H           1.30451101417737   -1.47044889587357   -1.54814791237407
H           0.04834292144636   -0.34556606927461   -1.73989820238302
