    26
        -50.44964828  Gyration_radius:  2.66918280952 Dipole_moment: 4.495
 S           0.85574578545392   -0.26972248322939    1.15064952765300
O           0.98656430321291   -0.15179321031680   -0.28282334777087
O           0.43744411218367   -1.55169084331030    1.61716090358892
O          -0.12436813468214    0.82636042327816    1.64067113990070
O           2.16097499733942    0.13150653011434    1.82740934876118
H           2.42068244707671    1.06937088542820    1.51886837282592
H          -1.05513176362198    0.59677974175468    1.32947492963074
O          -2.45623594212129    0.12426524328759    0.84363800205264
H          -3.13187348722218    0.40747383927216    1.46260419247237
O          -1.30304449201268   -0.22560578284568   -1.71987098279575
H          -1.89110514128592    0.10207150417208   -1.02802762324438
H          -0.41549510235552   -0.22947356358009   -1.31944434402719
O          -1.91987375840034   -2.84103396809522   -1.58355654636971
H          -2.69870396186766   -2.99987428738861   -2.11851671132118
H          -1.63916051352979   -1.91651793247913   -1.76836375404106
O           2.89587872758380    2.40760433554153    0.97018334782163
H           2.62505975264032    2.39901834749248    0.00160935455986
H           3.85543201705228    2.41584402524832    0.99047296796491
O          -2.08301437925747   -2.38868725783174    1.06624970198973
H          -2.38867634057133   -0.89144519067048    0.94058099085247
H          -2.03644760949369   -2.72216967952994    0.14347126399578
H          -1.15998972471566   -2.33470546858822    1.36826197646648
N           2.14313382018203    2.12134493994620   -1.54483992084415
H           2.79996243889916    1.95584155704911   -2.29709381908099
H           1.41884693406160    2.73488235423189   -1.89616690940233
H           1.70339502525589    1.23035594115842   -1.31260205154356
