    26
        -50.46185058  Gyration_radius:  2.40104220404 Dipole_moment: 4.289
 S           0.66333922477605    1.43483215493681   -0.90364189400867
O           1.69135902550148    1.10043435836618    0.07299278234037
O          -0.50532541026086    2.02852320517259   -0.30287391472837
O           0.35040743769498    0.27874110364901   -1.73996418427348
O           1.28624512158821    2.51435432628385   -1.87065972008843
H           1.99945473963366    2.02657224548662   -2.26727692025602
H           0.24741423217787   -1.12156503325883   -0.83462098984700
O           0.11717617154746   -1.85863813270285   -0.19715738762075
H           0.97920307227811   -1.91502699744362    0.29844209079828
O           0.16329988397151    1.06951393181737    2.19921136651424
H           0.82497037420068    1.08760262254594    1.46854484736479
H          -0.34979407323174    1.87317845782438    2.07147814790791
O          -2.08402115207048   -0.70279912856548   -2.30709675546993
H          -1.93063117870082   -1.64290183319723   -2.18778023638847
H          -1.20205583277911   -0.28391801484976   -2.28121833700566
O          -2.72523090300399    0.61960544630268   -0.09420945027223
H          -2.72788191761028    0.13232732017947   -0.95081386493744
H          -2.03069201742565    1.30596252454683   -0.20566107957244
O          -1.41783034097556   -0.80937098454601    1.46676128030731
H          -0.80478733740070   -1.34876624529511    0.78287543269227
H          -0.79882180390651   -0.11273235569229    1.88488277937379
H          -2.08669041149522   -0.23905266899320    0.84898685432661
N           2.37898923566321   -1.50058041466954    1.15011929645233
H           2.40497155961375   -0.54129945308906    0.80781502177956
H           3.26633558002723   -1.93545544297463    0.93307817359663
H           2.29059675017553   -1.45954099180173    2.15778666100981
