    26
        -50.46185036  Gyration_radius:  2.40098243919 Dipole_moment: 4.284
 S           0.64821337576234    0.68709802648744   -1.55699967733281
O           1.82324125762392    0.20325133130155   -0.84458947796778
O           0.08758761070270    1.87675559797150   -0.96563999447860
O          -0.33161557620559   -0.38349581935597   -1.72360403214848
O           1.12210468209152    1.07180375750019   -3.01160212176377
H           1.40781390851539    0.22979163816758   -3.34818664603900
H          -0.48996930411604   -1.29105992067766   -0.32994463796486
O          -0.57179335868697   -1.69172735052253    0.56413228926038
H           0.35085462675696   -1.99271571755372    0.78782614382538
O           1.38874310664885    1.42744222855538    1.42902901192808
H           1.15360801840977    2.30909085013440    1.12431419132257
H           1.65680566454235    0.95226424783489    0.60784251354743
O          -2.95519223581494   -0.28589081776668   -1.15814027317035
H          -2.05912475982531   -0.31540060819775   -1.54550130426244
H          -3.07251287013942   -1.12479669979088   -0.70645039302408
O          -2.16764134223501    1.72187625826650    0.39293775340265
H          -2.67883494082995    1.07802805267793   -0.15051455383597
H          -1.40313912932659    1.96747803208769   -0.17377942497709
O          -0.86013611072140    0.33484013621108    1.99102348523214
H          -1.50529738725326    0.95585509156044    1.39714030557752
H          -0.79128781354397   -0.58232038715314    1.45394763340266
H           0.06225189023339    0.76424029262878    1.90139350647059
N           2.02911836603564   -2.03654692948947    0.98253707096442
H           2.21414702311734   -1.32070598589713    0.28150835704169
H           2.55852177164966   -2.86241295657342    0.73502244758339
H           2.38353354660242   -1.69274231840079    1.86629781741289
