    26
        -50.46048036  Gyration_radius:  2.52176411894 Dipole_moment: 3.409
 S           1.51717173193032   -0.47737113978263   -0.17134215338637
O           1.01049158635595   -1.44633230343970    0.80327988041580
O           1.62945368862684    0.84282761178762    0.41433192669424
O           0.70150143837759   -0.49575419442110   -1.38352407087673
O           2.96243603391518   -0.91694038846953   -0.57245134443646
H           2.84306683515466   -1.64221086642444   -1.21990576769516
H          -0.77872495888118   -0.76447370921100   -0.75319101380451
O          -1.66014952269097   -0.94004790449603   -0.34738831650713
H          -1.61364411138953   -1.84931408037405   -0.04545050034377
O          -0.54032609102818    2.46899084305760    0.07226926334091
H          -0.99358821551687    2.26029473814185   -0.76372232708262
H           0.30771780159712    1.99222331831119    0.05386199405215
O          -2.33855000427571    1.45328491385047   -1.76610302894672
H          -3.19408843782357    1.70993231600679   -1.41610222255981
H          -2.19625988409681    0.53489950658020   -1.50308770574018
O           2.02658262618726   -2.45710332403430   -2.51749903710617
H           2.32752748924957   -2.22332801050336   -3.39850499480439
H           1.32840119569030   -1.81194601153511   -2.28381176037952
O          -1.87670047811904    0.88375674720628    1.66767277870842
H          -0.61939416151185    0.49824405328897    2.39780607986266
H          -1.49551203591858    1.63867934731928    1.14149400374325
H          -1.97540542182931    0.17164741244718    1.00474658722025
N           0.40500069716259    0.21498773727084    2.65368502142366
H           0.62703526503249   -0.65136037316800    2.06728643179361
H           0.56892960188463    0.09577841906208    3.64679347196746
H           1.02702732191794    0.91063533152034    2.21885683443962
