    26
        -50.44964607  Gyration_radius:  2.66673878233 Dipole_moment: 4.547
 S          -0.10284860605469   -1.25298667831185   -0.74920970517156
O           0.07293941546943   -0.86292108895521    0.63026629193062
O           1.09519689770696   -1.29923858173117   -1.52272138928413
O          -1.12506438427578   -0.28558465600238   -1.39953385898984
O          -0.82585694183601   -2.59212152498520   -0.82447215394704
H          -1.70761362327173   -2.52356809094543   -0.31415998115767
H          -0.69780622444165    0.62123843858389   -1.50382922798408
O           0.06955605472723    1.96637880038876   -1.65986505809859
H          -0.24248963359724    2.43639049078273   -2.43545690112609
O           3.38715404464078    1.67030990713093    0.30598674586763
H           2.49608530553723    1.67071172815726    0.72253264934025
H           3.76888802847048    2.53135349292051    0.48154008224560
O          -2.95806051770082   -2.47970281657459    0.55221483078589
H          -2.72663226088667   -1.86279822001745    1.31213375583539
H          -3.08838446350556   -3.35159084532807    0.93195711279940
O           0.80481412766900    1.70462579547448    1.06247105480534
H           0.42298749264202    2.07517365997426    0.25697915087822
H           0.59190401615044    0.75494519069333    1.03289590161018
O           2.39107761422661    1.01096410157534   -2.10775008196024
H           1.01818099881924    1.65328830034884   -1.87897188122041
H           2.90982383294938    1.21372157869591   -1.29868083836957
H           2.13956678344608    0.07510429818159   -2.02503151832930
N          -2.09147971284563   -0.89161583186389    2.47545239089521
H          -1.19620190261676   -0.79532915598373    1.99540045656357
H          -1.90573803907388   -1.21857958794808    3.41528411532290
H          -2.49999830238326    0.03183130574593    2.54456805675331
