    26
        -50.46185104  Gyration_radius:  2.40100218538 Dipole_moment: 4.301
 S           1.10386605362315    0.12789792063308    1.44297227411218
O           1.99957331909589   -0.47758565434496    0.48887830624611
O           0.03840664792169   -0.77102034587208    1.86631612158760
O           0.55316294262603    1.39939943791297    0.98064668723588
O           1.95433985700152    0.46335692912801    2.72852935037347
H           1.30926294136729    0.89667894207007    3.27625043843195
H          -0.80133012044284    1.17177160771451    0.02981079081669
O          -1.52253682541189    0.91861924128540   -0.58859025151045
H          -2.14016362117316    0.36461123082117   -0.03781396427831
O           1.89098255830031    0.24786187305058   -2.04440723693193
H           1.73795451849977    1.21813716562026   -1.96359269557433
H           2.13899591182120   -0.03709394516007   -1.13705298333212
O           1.12066983990642    2.68150482939491   -1.30993772096554
H           1.01872197645719    2.35431315889884   -0.39536011246393
H           0.23952621343422    2.93062852378144   -1.59826320289159
O           0.16418258193198   -2.44055278704461   -0.14729408175745
H           0.05904471357044   -1.89058484033247    0.66411470031005
H           1.11404702140652   -2.57538187188542   -0.21833590063386
O          -0.37601111216446   -0.77488076679738   -2.01847136989870
H          -0.92689977521227   -0.03241406405879   -1.49007022547587
H           0.60125955687918   -0.34886724430592   -2.15593688783231
H          -0.23415301323601   -1.52932421824117   -1.34478144044717
N          -2.74165277776841   -0.78433941663344    1.04652817154217
H          -2.95270161554145   -1.69486431010126    0.65756741257727
H          -3.47723364479718   -0.54667570178408    1.69924206464476
H          -1.87131414810791   -0.87119569373821    1.56905176611116
