    26
        -50.46167892  Gyration_radius:  2.40109094348 Dipole_moment: 7.715
 S          -0.61317835346312   -0.77832349928625    1.20178721214393
O          -1.04152804012082   -0.44447108292217   -0.16339296068613
O          -1.21737767102892    0.05525937030082    2.19763822151678
O           0.95237560346619   -0.52662821653463    1.20568215021237
O          -0.70900058990719   -2.21666542733036    1.43017243440030
H           0.26799769514129   -2.68278327591455    0.50480705022362
H           1.11253054423784    0.45750317874706    1.14582545362393
O           1.33113398846772    2.02780418981840    0.97114659194647
H           1.86214413409155    2.38387869686561    1.68529432810854
O          -2.04198192289535    1.93878208434834   -1.00231559235279
H          -1.37190014754264    2.09719624992704   -1.67326184998368
H          -1.90866652645716    1.02036703853710   -0.70990944420572
O          -0.06141598498546   -1.71849893487924   -2.31285227909079
H           0.45083844486258   -0.94428747829905   -2.58526331702326
H          -0.72748689318568   -1.35334485317828   -1.69813097852066
O           0.85738511080228    0.84764883859783   -1.59540045453209
H           1.33786357104281    1.45698395147322   -1.02698263172354
H           0.17707968138268    0.45374639767613   -1.01975159763180
O          -1.11435625240120    2.62222831527406    1.45352692923542
H          -1.31211609347683    1.76558247092534    1.88085232013775
H           0.38946811689205    2.36651326252095    1.13692337416999
H          -1.59204042012657    2.59621404950905    0.60026569560937
N           1.07701940441967   -2.85014162473931   -0.23799937865504
H           0.69821803634428   -2.48943108858938   -1.17340101443331
H           1.35052931960749   -3.82651629707116   -0.28698649540792
H           1.84646524462621   -2.25861631606858    0.07172621297364
