    26
        -50.46048053  Gyration_radius:  2.52129092214 Dipole_moment: 3.412
 S           0.54760375883904   -0.73796200805807   -1.30907641170372
O           0.15671908119034    0.57285386356769   -1.78572998660225
O          -0.62492873013820   -1.55161351258769   -0.97922999785671
O           1.46710159243156   -0.68131934725215   -0.17504198295115
O           1.29839408158581   -1.43996307868778   -2.48651472009245
H           1.80643457204812   -2.16824651541006   -2.07299372802845
H           0.41580165792141   -0.65948119413140    1.07204899725201
O          -0.24133441506698   -0.66041729687865    1.80729021885177
H          -0.61013136909796   -1.54585938561015    1.80472951367859
O           2.72606075237560   -2.89934546495385   -0.79458120294131
H           2.36971169635169   -2.13210038926260   -0.30197954887206
H           3.67531660504473   -2.76836620499301   -0.85035964045137
O           1.16326552156181    1.73110004221328    2.51979324595114
H           0.85830689367843    0.81791398011614    2.44286148962616
H           0.61096488922244    2.15007448204646    3.18294686707583
O           0.03257709318307    2.52366283086796    0.12415096123720
H           0.24276981811992    1.90867720487252   -0.60003701039669
H           0.67771389468314    2.34913620760784    0.83211792305155
O          -2.03405303891607    1.28239490708046    1.13983133286678
H          -1.50480108192318    0.56206722247452    1.53643431894189
H          -1.34539976253819    1.93028713230710    0.82659017019119
H          -2.41032414696993    0.72786017873924   -0.20648665750187
N          -2.39072371732128    0.28716647603006   -1.20687447268466
H          -3.30230664252562    0.19661882771532   -1.64067695024187
H          -1.85813797426216   -0.63532992368523   -1.11274738808112
H          -1.72660102944855    0.84019098583443   -1.76646532044993
