    26
        -50.46167936  Gyration_radius:  2.40137317324 Dipole_moment: 7.742
 S          -1.35815947301696    0.29839151239145   -0.69720435796582
O          -1.35054334025286    0.09028822291728   -2.11431905161138
O          -0.22107490017185    1.10252618061844   -0.22940951872961
O          -1.18642693759922   -1.10204843062142    0.02625908565930
O          -2.60709830688234    0.80080303830782   -0.13321016846354
H          -2.38780118588362    0.53112932781513    1.24670211234866
H          -0.39640799814985   -1.56658588583428   -0.37076213667564
O           0.91546825562624   -2.24472662918493   -0.97450817820315
H           0.72224603505675   -3.11213976282032   -1.33363798321557
O           2.15744053331054    1.42700129675313   -1.50488509334562
H           2.69963681077480    1.08611439787152   -0.78775350913433
H           1.26407829465455    1.52792495813656   -1.13288570923651
O           0.16498802611740    1.61496976422404    2.37535552618872
H           0.92791578980977    1.02154735554555    2.41862818715618
H           0.05885714019477    1.78865821450157    1.41944149992290
O           1.67299241023704   -0.35763813474147    1.04055049749934
H           1.00770915498178    0.11479635392910    0.50813990766856
H           1.76560064726463   -1.21511944796573    0.61460967711544
O           1.09380649786732   -0.61260370767474   -2.94198748186909
H           1.08108399657228   -1.64786272788400   -1.77765629226967
H           0.16526840227482   -0.31543923621462   -2.87126666629677
H           1.62732094802196    0.14941480036471   -2.63896971569160
N          -2.05462932930822    0.22188341745551    2.26090285394489
H          -2.77598750958028    0.37311314990598    2.95896557501292
H          -1.16953692879689    0.79026150056146    2.46586401977628
H          -1.81674702316554   -0.76465952836423    2.17303692040439
