    26
        -50.46048046  Gyration_radius:  2.52153194719 Dipole_moment: 3.410
 S          -1.22626624342553    0.24027751569464    0.99895499130129
O          -0.17049236752787   -0.18205733844640    1.92221021692243
O          -1.66463868739545   -0.86164065544548    0.16718217401569
O          -0.79527062452614    1.40227889369867    0.22517659304898
O          -2.45926538462578    0.67778756557235    1.85391556773047
H          -2.24892029058767    1.58069173642559    2.17009776558414
H           0.78801686005248    1.06586887887351    0.02198673100926
O           1.74395342857575    0.84433459765389   -0.07512945362438
H           2.11176923804926    0.95756260111777    0.80344395790280
O          -1.54569469603174    3.16129343346543    2.02291293581707
H          -1.09921322630158    2.72856547855402    1.26681943638896
H          -2.12350091358336    3.83060728558029    1.64935986037190
O          -0.40598099469066   -1.07944064332615   -2.24906499904258
H          -0.13422970973992   -0.20210890965927   -2.57203895911955
H          -0.99465385530903   -0.92493353221357   -1.48987024115283
O           1.11503129207309    1.14935830603182   -2.85227688937547
H           1.87440426543833    0.78987770934025   -3.31530154261737
H           1.39185520757285    1.29485067611672   -1.93847152831173
O           1.77550227187365   -1.73370310090084   -0.96170108205597
H           1.02387650131255   -1.61275774498585   -1.60397083661758
H           1.95857767476175   -0.82431504375641   -0.65216141730374
H           0.97616980016461   -2.32385420475796    0.16769979803805
N           0.22797359157455   -2.51247129577106    0.94207883740435
H           0.19975170895107   -1.63068049903187    1.54656307349710
H           0.37551618994921   -3.36815834292962    1.46491571684566
H          -0.69427103658816   -2.46723332689621    0.48666927333070
