    26
        -50.45059728  Gyration_radius:  2.57408061696 Dipole_moment: 4.946
 S           0.03205022238692    1.23767023392519    0.87386674662812
O           0.70945331798084    0.94450176656665    2.11361100222957
O          -1.39220688003853    1.10825837471234    0.90784643708211
O           0.60992532868006    0.31939299525584   -0.22869046415025
O           0.43550538227950    2.62405985321318    0.37507826149191
H           1.45930478488674    2.66649894547222    0.53849750947959
H           0.20635179093674   -0.65239559903785   -0.13226113959481
O          -0.53072153993562   -1.88494747828827    0.07353696726672
H          -0.62587097420654   -1.88020082769929    1.05386270645343
O          -0.78864342601707    0.05134132451793   -2.74950732601970
H          -0.42412862104378   -0.83983242236573   -2.90690661925544
H          -0.17145076611213    0.47279402247015   -2.14269992331440
O           0.07433492498174   -2.55906792980625   -2.58241158236579
H          -0.61242394438210   -3.17019371903282   -2.85580010191457
H           0.05317083993555   -2.53636120874627   -1.61494407645678
O          -0.85026644051937   -1.19907714132509    2.61769295017579
H          -0.19860239107336   -0.47698017141573    2.64459236854646
H          -1.70856835457867   -0.76666476298861    2.62443119494067
O          -2.58844968364521   -0.62846869707630   -0.85799062684751
H          -2.15582354266579   -0.32936447024479   -1.68736082498006
H          -1.41834815334961   -1.56183334710215   -0.27885593256840
H          -2.47709482314124    0.10769067517238   -0.23717721255627
N           2.88784728999089    2.34297354531461    0.99905649221577
H           3.45164164541725    3.07267379436691    1.41425963984782
H           3.44187793920673    1.84165543335709    0.31762016905532
H           2.58113608412948    1.69587681076026    1.72065338462962
