    26
        -50.47472239  Gyration_radius:  2.50605998837 Dipole_moment: 3.306
 S          -0.21749632460720   -0.46246223183505   -1.00791857712905
O          -1.36600469772112   -0.08052931475511   -0.18740313793765
O          -0.73647885455563   -1.16216529801384   -2.28036183655938
O           0.52834089284405    0.71469896778454   -1.42564973698392
O           0.64148534844591   -1.40515423580308   -0.28250451517786
O          -2.76083205116933   -2.22153116479242    0.48473835411223
H          -2.27613018534331   -1.38391044375103    0.31548427020929
H          -3.67103934346402   -2.05859868521193    0.23191141354337
O           0.09473190913601    3.06248657709454   -0.27493932246340
H           0.17943063809208    2.21702726702102   -0.77126263522674
H          -0.60119183841019    3.55581499985407   -0.71103274439069
O          -0.51838539353195    1.44317319103928    1.81580193762375
H          -0.34213144906998    2.24286535299150    1.28442448607776
H          -1.00274015554502    0.85704867017833    1.19570727917816
O           2.75162862983393    1.77190937143261   -0.34513197978648
H           2.13816918286777    1.33049491535774   -0.96445835860020
H           2.37661059282664    2.65080300944128   -0.22274604632432
O          -0.96152726749180   -3.41790417719458   -1.09544798872599
H          -0.17253594569304   -3.13029928829746   -0.61353475251266
H          -1.71172547044296   -3.22106256280752   -0.49440705751786
H          -0.89308600645721   -2.10818666593249   -1.98153653994273
N           1.72955542777063    0.15298204324258    1.49751198855077
H           1.36867180093942   -0.59507236328628    0.83479943484437
H           0.85835686235987    0.69153179531917    1.81443217401517
H           2.24690679007227   -0.24709045023977    2.27226036982713
H           2.31741692830742    0.80313073114643    0.91126352130136
