    26
        -50.46582170  Gyration_radius:  2.52377122841 Dipole_moment: 1.966
 S           0.56649036061768   -2.06450155317734   -0.33699251808480
O           1.54525392159174   -1.52169478448820    0.59238329169321
O           0.22444046313759   -1.09388723560020   -1.36935190198735
O          -0.58685308583288   -2.65908314507051    0.30019740027452
O           1.29464255914579   -3.26340201833272   -1.08786437679195
H           0.70098798731606   -3.99270682075256   -0.94270638189498
H          -1.61080686202205   -1.59262231548216    0.99853213578185
O          -2.15861898546298   -0.87290034949300    1.39383402093118
H          -2.81082207491860   -1.30360838376388    1.94854367199390
O           1.06959109962258    2.44068430762390    0.59543875324320
H           0.28067053859155    2.70943742908128    0.06935949753802
H           1.74162404027799    1.47176016858621   -0.25824071155159
O          -2.04125460380574    0.36782798830897   -1.08172801695257
H          -1.28725943363702   -0.19106870931253   -1.33749479575128
H          -2.29200325293309    0.05536391937081   -0.19899471502799
O          -1.08833785265971    2.83551286831852   -0.89734101548767
H          -1.45876900280686    1.92798257443738   -1.03176041305943
H          -1.82593130964129    3.38773193229151   -0.63673873797223
O           0.22187732019250    0.37828680429167    2.05264813868216
H           0.73181018233832    1.82276877582305    1.28508980702351
H          -0.70234549552509    0.10219409390858    1.95139110598730
H           0.75078379048232   -0.35406287641808    1.69560579895736
N           2.13102199277940    0.59388730534302   -0.81885889106534
H           2.94145421995503    0.81073552714769   -1.38755379091806
H           1.35343481218257    0.16976023006246   -1.36900342780739
H           2.30891867100874   -0.16439571270345   -0.12839394775273
