    26
        -50.45176904  Gyration_radius:  2.55062023017 Dipole_moment: 2.568
 S          -0.12289865635194   -1.34163005897620    0.01413063233792
O           0.41180955128824   -1.82156700442276   -1.21797304447939
O          -1.07934925876870   -0.25705961946780   -0.12342480021029
O           1.02207791429067   -0.85477287879973    0.93318500726932
O          -0.74029291571189   -2.47475756046125    0.81168917436788
H          -1.36797948576271   -2.02862654408311    1.49938374400502
H           1.44194957547295   -0.02582039315158    0.54447779425194
O           1.94033346289544    1.25681381868613   -0.20412505095863
H           2.79681558669800    1.11736800964626   -0.61162231511868
O          -0.67781240928221    0.47614137976578    3.69967927484623
H          -0.45018152299416    1.05189707092517    2.93428090269163
H          -1.08217647746229    1.04475681650561    4.35716443408362
O          -0.35534315935108    1.86232697588696    1.44177453292887
H           0.52884824813318    2.06276696165511    1.11926603992177
H          -0.71445269491313    1.20226832438279    0.82447866927746
O          -2.24398613190142   -1.10258628795835    2.27604383612743
H          -1.66347346474872   -0.61311110753983    2.91551978327646
H          -2.43357623068457   -0.48281963182595    1.56171679810016
O           0.13331780565255    1.33858297834703   -2.02960718026160
H           0.40153375868050    0.74859171799556   -2.77596839891644
H          -0.53124172872103    0.84045728377683   -1.53144699786867
H           1.27953620236364    1.38467168249326   -0.95913024604971
N           0.84288029381579   -0.58489318124144   -3.78815632675782
H           0.15653034005513   -0.84283993916787   -4.48617804774786
H           0.74766766017024   -1.23510592519974   -3.00950367594222
H           1.75946373706589   -0.72105289775864   -4.19565454914136
