    26
        -50.47294848  Gyration_radius:  2.44387759163 Dipole_moment: 1.546
 S           1.54797036575498   -0.51557492130454    1.21165784242238
O           1.02172382122232    0.81860409170777    1.44255780685563
O           2.06379255129060   -0.67998894105036   -0.13855138912452
O           0.62233310712016   -1.56945205621214    1.57584546001144
O           2.78619211599636   -0.65895205284984    2.18826109931861
H           2.96924637534723   -1.58865486419717    2.11353614364576
H          -0.70560900561065   -1.80882708459647    0.71435813966796
O          -1.48072806684695   -1.98001937077143    0.11858573578392
H          -1.98461870351122   -2.67725554135660    0.54094779199105
O          -1.47173572047092    1.40521249776068    2.10383147869468
H          -0.54764340828841    1.11670613100477    1.94910777333504
H          -1.41683975542826    2.30874514417651    2.41849588417719
O           0.30084833255439   -1.52269468722298   -1.93360095758715
H          -0.38430311065887   -1.91598566010066   -1.36905262227801
H           1.04676990568742   -1.32601839528528   -1.32572120346710
O           1.64119411972235    1.89559623977373   -0.85705801935589
H           2.21976838915384    1.14641160650593   -1.05277248178183
H           0.26977550798736    1.47922687483537   -1.60833800161005
O          -2.43460775794565    0.56045381106704   -0.24681604753895
H          -2.20476833478069    0.95217025758266    0.62254838928555
H           1.40438074569795    1.72662621980246    0.07968444923079
H          -2.26773565292524   -0.39352872412242   -0.13063328457247
N          -0.55388060973377    0.96367699612027   -2.02768230218823
H          -1.35959168621837    0.92366874861248   -1.32471219270090
H          -0.23383314747413   -0.04410116270485   -2.16295266541627
H          -0.84810038780731    1.38395484280652   -2.90152681673142
