    26
        -50.47294847  Gyration_radius:  2.44365832034 Dipole_moment: 1.540
 S           0.63152150001254   -0.13764193029028   -1.92493226985126
O           1.61545830536398   -0.89005877051489   -1.16203942229207
O           0.47189917296681    1.21999845379097   -1.43324657603041
O          -0.62231439207340   -0.85226654409446   -2.05544321203543
O           1.21314788820607    0.00804974704219   -3.39058456618962
H           1.14846832168702   -0.88746822332232   -3.70263670629751
H          -1.44481475259734   -1.27776107737426   -0.74984287567306
O          -1.89281668776222   -1.59257704223524    0.07802830509867
H          -2.71138742703476   -2.00062803465756   -0.20802257656783
O           2.32863592132905    1.19967822402480    0.40586263491025
H           1.37066537576720    0.65913278719218    1.59280507034318
H           2.68733906799980    0.38076205672784    0.03871448097146
O           0.65466438418477   -2.19987082970155    0.93599886532292
H          -0.29044656506668   -2.25509231281775    0.72022849187638
H           1.07998638014232   -1.85227843596966    0.12180076612712
O          -1.76594969696053    2.28355493674788   -0.50581870359910
H          -0.99686830904895    1.86185371224003   -0.94369921047875
H          -1.59300386345578    3.22606475756692   -0.51905373433483
O          -1.79400885832271    0.66398870660764    1.62574726068042
H           1.66498617946221    1.44999154714969   -0.27174116681945
H          -1.86684655764049    1.34890032094430    0.92743417391111
H          -1.98428897832981   -0.17204382015565    1.16073364559370
N           0.70241594761633    0.10691061001179    2.19989409984092
H          -0.30130338659472    0.44194861223125    2.04116495590290
H           0.95860549157940    0.16278873888793    3.17868417465883
H           0.73625553861289   -0.89593617995988    1.83996408496477
