    26
        -50.44982922  Gyration_radius:  2.46281963089 Dipole_moment: 6.410
 S          -0.29318153084498   -1.65677503560258   -0.58572378299112
O          -0.88536445660981   -0.40941654109359   -0.11379994028334
O          -0.20756535606429   -2.67892585795021    0.41327740597301
O           1.16714631149860   -1.26765666108350   -1.06131369368744
O          -0.94990089087841   -2.08091634919960   -1.83613841210632
H          -1.44167995441662   -0.96857650654602   -2.43220443203514
H           1.63266119668214   -0.91960534953653   -0.25378955598778
O           2.19863938487853   -0.25575047439350    1.09967148674892
H           3.01896073563340   -0.65073430840672    1.39982397635827
O           0.94121785797517    2.26057724039286    1.03578717895219
H           0.60723635146322    2.30102310153500    0.13194403699420
H           1.51308258101115    1.47869940534492    1.07363766272057
O           0.15352804827707    1.35802836004460   -1.61419943465830
H           0.98874475998890    0.93626892701777   -1.83856960388293
H          -0.24167828275080    0.76618220245426   -0.90659765026203
O          -0.97407049707921    1.26230210144474    2.70798048251219
H          -0.76121783006321    1.64032272194799    3.56311437516742
H          -0.37424548145768    1.69369788566780    2.06480261461989
O           0.29957210916131   -1.13066890170430    2.54815225115783
H          -0.33710913598904   -0.38350299924393    2.57412611249070
H          -0.04347126137395   -1.77307102160387    1.89973635222144
H           1.47598608108701   -0.58589052471019    1.74560626958163
N          -1.80798158566685    0.04488972427368   -2.84529023209803
H          -1.06191859804266    0.72999788211027   -2.55691095614184
H          -2.67190581886466    0.27437975472247   -2.36323867137099
H          -1.94548471757675    0.01512120410870   -3.84988383996405
