    26
        -50.47294840  Gyration_radius:  2.44373059149 Dipole_moment: 1.544
 S           1.19864544528502   -0.37183768296357    1.59679548027880
O           0.45876887443934    0.87624421052482    1.66907577915089
O           2.09165730320491   -0.42003598768006    0.44931084172381
O           0.35375657061455   -1.54605842319638    1.68177764920360
O           2.11959587699994   -0.39403043654275    2.88475708131751
H           2.45748325525760   -1.28188657330016    2.85210022182078
H          -0.64215398167313   -1.90759978890587    0.48193854422782
O          -1.19275217254288   -2.14622162793264   -0.30868607803923
H          -1.70197611571136   -2.91527420856790   -0.04861612751016
O          -2.17383878687225    1.13214318229672    1.60773981900848
H          -1.21436158763535    0.96371149781197    1.71744875068662
H          -2.32438202052233    2.02188602397047    1.93033710745183
O           1.02065727326311   -1.40085336215659   -1.77151073878455
H           1.53586478720165   -1.13887351649876   -0.97744895486889
H           0.26010960597632   -1.89466011682755   -1.42425429686243
O           1.56205449740563    2.11092243570290   -0.35284763711417
H           2.26298707804267    1.44589006092800   -0.37831287118546
H           0.52088436222509    1.56095098788295   -1.46269162930552
O          -2.31904318402073    0.27262630932954   -0.92355427064246
H          -2.39558849344483    0.65500841390487   -0.02356090628123
H           1.09359175637187    1.87714668650777    0.47667227527401
H          -2.07230239393191   -0.65800014773077   -0.76717776377232
N          -0.08055438872434    0.96591943207031   -2.09858881265441
H           0.38906025599163    0.00981219400426   -2.13964651055398
H          -0.16908035593679    1.38002969462203   -3.01916161473066
H          -1.03908347125379    0.80304072274818   -1.65189536786363
