    26
        -50.44982923  Gyration_radius:  2.46291463185 Dipole_moment: 6.404
 S           1.15984107466452   -1.34486521157821    0.13361611111330
O           0.59462599657292   -2.65163048792449   -0.01786556500485
O           0.30099960090906   -0.40223474267492    0.84288994711398
O           1.38471931231182   -0.70391882072003   -1.29764427023837
O           2.51194650233541   -1.33062319651463    0.72228922163327
H           2.69044955183655   -0.11744229275079    1.29582024440694
H           0.48225373897625   -0.64194385411483   -1.71220541400826
O          -1.04741558718998   -0.47959660817286   -2.18656957552927
H          -1.22685379462721   -0.89673194905593   -3.03084566372044
O           1.00431130872304    1.86156469858288   -0.07166826921333
H           0.58054986799731    1.02539269046724    0.28635772845116
H           1.32160600264320    1.61285099900297   -0.94532380138528
O          -2.92691687508278    0.11326821840252    1.14151319516082
H          -2.51502165901684    0.79174936278206    0.56748191710992
H          -3.87059873723279    0.16760981785021    0.98032916789642
O          -1.83080471864771    1.78856130658282   -0.71686612916988
H          -0.98645306304476    2.13173114201375   -0.40151937170373
H          -1.61357271051699    1.09045836907743   -1.35343276357075
O          -1.97974409640903   -1.95730880186867   -0.33810496968926
H          -1.12562752883616   -2.34179495536187   -0.06712591613290
H          -2.24065519636607   -1.31940093299324    0.36139009510784
H          -1.49132833034239   -1.07389350345036   -1.48058056575451
N           2.72806678878053    0.94742847387833    1.74031984676831
H           3.68111794637539    1.27599509066839    1.85299842102385
H           2.24110132807055    0.92146516826082    2.63115402751010
H           2.17340327715943    1.53331000959907    1.06359235172197
