    26
        -50.47294859  Gyration_radius:  2.4437210435 Dipole_moment: 1.548
 S           1.52044837714307   -0.20661107347603   -1.33021166140104
O           0.24417200118780   -0.73551747166667   -1.77932467469808
O           1.99666810570232   -0.86237965458921   -0.12199645924837
O           1.53331342682763    1.23734534142496   -1.21031669760528
O           2.55453117060067   -0.56543060828622   -2.47460516226763
H           3.31553356292998   -0.06956210904109   -2.19451260054193
H           0.67993443532856    1.95331460393986   -0.06105698721006
O           0.20090937788693    2.36267873982150    0.70593368305224
H           0.29269450864253    3.31000445616099    0.59428764722063
O           1.20133636072525    0.24346069674743    2.15532851289601
H           1.64088443777077   -0.16223594495235    1.37636298254510
H           0.95636227492892    1.13742972050935    1.86614150343382
O          -2.00117082641465    0.63874870695266   -2.04461125417231
H          -1.12032059007707    0.20951739656980   -2.01381529115572
H          -2.55134337987966    0.07327822808055   -2.58861140549951
O          -0.03481607979438   -2.64968598294106   -0.02202940561471
H          -0.80059261038124   -1.74463206211022    1.07944824945771
H           0.89149721266641   -2.55061491908320    0.23545637675475
O          -2.20078262886573    1.05181548447973    0.59310315056266
H          -0.08692835053666   -2.06944802470232   -0.81124984040043
H          -1.44309575234461    1.65740340610522    0.69540946012238
H          -2.27486366277530    0.92167584849178   -0.37622569565699
N          -1.08475809005656   -1.00276717182955    1.77868026611107
H          -0.18083040151195   -0.53819045531202    2.10036027269194
H          -1.59741401138951   -1.40316565287916    2.55563512644898
H          -1.65136885822397   -0.23643149830313    1.29241990410459
