    26
        -50.47294834  Gyration_radius:  2.44385121008 Dipole_moment: 1.537
 S           2.00522015587523    0.17245248169587   -0.27741070380039
O           1.50157895172683    0.83606424701105    0.91275387008319
O           1.41470317364406    0.70240921261512   -1.49653835336770
O           1.91803344198181   -1.27251693865464   -0.20989813314806
O           3.54948236404767    0.51838748375342   -0.33555915826323
H           3.84409181206649   -0.08002267134544   -1.01271392526489
H           0.48902009000743   -1.99282467035656   -0.25911524290462
O          -0.40362720182309   -2.41313252971944   -0.36647006143809
H          -0.26188210709338   -3.35514336604035   -0.26246187167771
O           0.20346004467791   -0.32897819454814    2.90159174704558
H           0.24778538107705    0.31397975443440    3.61085698208275
H           0.76621258837720    0.02474479362288    2.18106876796606
O          -0.82094747805289   -0.48541509267652   -2.29009107477753
H           0.05508747581473   -0.06503942982899   -2.14694743281277
H          -0.76954195165069   -1.33472568812773   -1.82216662091814
O           0.00131752358968    2.64039954936176   -0.23826844486693
H          -1.33292138355547    1.72681676865439   -0.29912854580671
H           0.42091657551268    2.45228910549651   -1.08832038013114
O          -1.90623803503211   -0.90711824231965    1.35858269100135
H          -1.48306999414884   -1.57798630600015    0.79108757823989
H          -1.22802981477253   -0.70470484072086    2.03760783090019
H           0.55829392451861    2.12091305037612    0.38009473258786
N          -2.04771638084248    0.96542518338974   -0.47064465947877
H          -2.06209550229907    0.28199899189102    0.35241883908950
H          -1.69137096777598    0.40838759495735   -1.30694123133330
H          -2.96776269579668    1.35333974312995   -0.64338717904674
