    26
        -50.45176911  Gyration_radius:  2.55068185996 Dipole_moment: 2.564
 S           0.25138220881555    0.10115982254782   -1.31943852646049
O           0.68570833062025   -0.82999677342213   -0.29259302150364
O           1.10372995501109    1.23115292027204   -1.49523599195682
O          -1.17996179445793    0.56867115345200   -0.96549188094155
O           0.05376552981559   -0.63446988784938   -2.63125435073941
H          -0.28372671441360   -1.57733414264100   -2.37972950317885
H          -1.18503130104933    0.98598391008679   -0.04883543367226
O          -0.99100952472920    1.57227552857424    1.39099562412520
H          -1.05313615467634    2.52895761445267    1.39345055179893
O          -1.33011069069946   -1.29546013874018    1.49211743330212
H          -0.52466762172530   -1.20336015841658    0.95502184995312
H          -1.52999505121099   -0.40989337137414    1.81118216959356
O          -0.64420607510762   -2.85362238070253   -1.69495926217185
H          -1.55401459179270   -2.73837161301223   -1.31477443372986
H          -0.03400552605776   -2.77309559242481   -0.95229244638649
O          -2.88064747415897   -2.43971370226681   -0.35437137960704
H          -3.32205940865509   -3.19554575006367    0.03686117158786
H          -2.43056885875597   -1.96666076078962    0.38238037776159
O           1.45875903039813    0.87845532370113    1.74047461107397
H           2.04890717097344    1.56198056138458    1.33844956415532
H          -0.03550845181079    1.34510334320672    1.63269346893999
H           1.44342502466006    0.14505615142009    1.10816787153662
N           2.89124849269976    2.63987505043684    0.27719407257865
H           3.86883837750088    2.42312905414280    0.12843260651978
H           2.79979679794038    3.64795796034835    0.28783751962679
H           2.37308831075961    2.28776588798040   -0.52628266215565
