    26
        -50.47294859  Gyration_radius:  2.4438495503 Dipole_moment: 1.542
 S          -0.30875172190671    1.30156417179766    1.52865037465252
O          -0.67745529001989    2.04351508993303    0.33293309436066
O           1.03910620991325    0.76503498530870    1.45158398151062
O          -1.30257528073617    0.30891268475485    1.88479425524478
O          -0.28167046410039    2.34728754934873    2.71750159526725
H          -1.20792777582845    2.53819239187654    2.81292618575668
H          -1.68181654597943   -0.85304444417066    0.85130899302486
O          -1.94877387079078   -1.51563903676124    0.16217303767014
H          -2.57745638557989   -2.09810930788921    0.59103312285877
O           1.75353681513362    1.80172410359835   -0.83871734402784
H           1.21310682614700    0.57496606664427   -1.74530679958167
H           0.99094749480607    2.39485004368632   -0.81409568054527
O          -1.80248988017736    0.60460038333969   -1.59152625328672
H          -2.10828962538888   -0.17605938244762   -1.10165720166812
H          -1.50759706444332    1.23688941253799   -0.90020820037606
O           1.70066326861112   -1.79369917244359    1.57284344395728
H           2.64135997307716   -1.77803052387399    1.75549232734300
H           1.39966334970772   -0.86227556236185    1.62648438940602
O           0.49551837674701   -2.34339345466906   -0.75378862738707
H           1.01969260868020   -2.26307673988855    0.07127580804349
H          -0.42717278414674   -2.21746750450139   -0.46366368831481
H           1.72585414609164    1.40071018422184    0.05621186223269
N           0.63159114161865   -0.17272098504711   -2.21733003222591
H           0.69520879226388   -1.08917520456811   -1.66884587355510
H           0.90804659911018   -0.30209704456941   -3.18356489511400
H          -0.38231893244778    0.14654130578600   -2.13650789516808
