    26
        -50.45176892  Gyration_radius:  2.55086341794 Dipole_moment: 2.576
 S          -0.46249187408951    1.26179714084217   -0.10891000631434
O           0.63290186317694    2.13307693717151    0.16576262952903
O          -0.66117321692596    0.21164699604320    0.87475083525228
O          -0.27219586701629    0.59229367651645   -1.49026669313152
O          -1.74647342064924    2.04997624860408   -0.28761271877598
H          -2.51515717276578    1.37314687675630   -0.15906520590589
H           0.50465189454657   -0.04786710632662   -1.45513521471068
O           1.71829055388897   -1.00323482353859   -1.19402034934060
H           2.51410917297174   -0.69098191281848   -1.62784832445008
O          -2.97828925713175   -1.63917147773700   -1.67963754336964
H          -2.11869919471010   -1.93394252237776   -1.30100324890535
H          -3.55097204132731   -2.40800869791922   -1.68575344582700
O          -3.37082882804085    0.19664175947144    0.17741498377080
H          -2.79856031698118   -0.18338753035857    0.85448372832981
H          -3.33303671254339   -0.42715940391348   -0.59384605479325
O          -0.74939896866475   -2.23522242786948   -0.33841047510435
H           0.09631107458736   -2.26718254383742   -0.79644035034353
H          -0.71189680836964   -1.44199740050098    0.22287596487840
O           1.93063441579437   -0.63504493086548    1.34031486753291
H           1.01223602806678   -0.35956707527579    1.47646553022491
H           1.88683536738842   -0.93467459558702   -0.19899603207705
H           2.47642792509167    0.17252307140202    1.50462245580928
N           3.11655793318549    1.77888688745977    1.58909458489322
H           3.94975780375578    2.09411499294764    1.10830380699811
H           3.12122567272084    2.19359616232576    2.51257586688682
H           2.30923398405052    2.14974168938465    1.09028041893266
