    26
        -50.45176908  Gyration_radius:  2.55064175801 Dipole_moment: 2.566
 S           0.89442860470162    0.31837323137252    0.95562363526379
O           0.52786025495021   -0.93213495974777    0.31378173238591
O           0.15246065251552    0.61977680732861    2.13591242036311
O           0.72456035799050    1.45457301103135   -0.08012864693846
O           2.38501718894345    0.33516196197929    1.23678300165676
H           2.82544198209029   -0.18794158394000    0.46309385256449
H          -0.22360862165610    1.46657310619892   -0.41964709679277
O          -1.72556035810448    1.30746974517969   -0.83594428277243
H          -2.26577090665875    2.01808634237661   -0.48624771149486
O           2.43978084912533    0.24479404332501   -2.89157915105767
H           2.69101342028831   -0.12398003637033   -3.74014898445649
H           1.47936864898692    0.05969590974700   -2.77977771710520
O          -0.05351383199513   -0.51954377597145   -2.32374962886165
H          -0.76078274756943    0.13138984036029   -2.27822363791671
H           0.09739700659472   -0.80499723379197   -1.40644665345270
O           3.13088698527901   -1.06449707134773   -0.70572299487764
H           2.35195596782673   -1.63010503998924   -0.64448388904650
H           3.00787717629006   -0.51787678439969   -1.52530904954304
O          -2.23364398618268   -0.85864461097059    0.45025975237242
H          -2.03022857390938    0.46036936897766   -0.37473462634123
H          -1.31655668849267   -1.16775015095093    0.48669957519539
H          -2.47375435331054   -0.63219636047285    1.38201304572943
N          -2.50003478954467   -0.08541605743636    3.02451960534395
H          -2.51604168306242   -0.81754461174712    3.72348788483189
H          -3.06843215349305    0.67826253677460    3.36866814231633
H          -1.54012042158742    0.24810240239696    2.95130143265385
