    26
        -50.45176910  Gyration_radius:  2.55062959864 Dipole_moment: 2.564
 S           0.26596896186382   -0.03430776745931   -1.31999169367721
O           1.58795248742496   -0.54971244669864   -1.46490710840772
O           0.14052407336708    1.04698459224765   -0.35818070133028
O          -0.69893888384854   -1.16596660761693   -0.89470196024304
O          -0.29259057314668    0.40209270122391   -2.66112479902023
H          -1.07888872886889    1.03667736590419   -2.44804451157066
H          -0.48133794700014   -1.46474527449776    0.04220616002122
O          -0.00486287804683   -1.76847383974610    1.50347735084648
H           0.45008687661384   -2.61054833976420    1.55838214530689
O          -3.73635576692975    0.51638109065253   -0.38518285492673
H          -4.51132095133112    0.94625973927534   -0.01933666159242
H          -3.10342626364120    0.39999058230487    0.35980726922264
O          -2.06103805928112    1.96788860938594   -1.81926620207344
H          -2.77089443784145    1.41215664761542   -1.40345237817394
H          -1.50063799830686    2.26887681619389   -1.09416511501499
O          -1.81403182722184    0.48370699021006    1.46585374735569
H          -1.51336174415403   -0.35161553718584    1.83712530425601
H          -1.08273630302679    0.79907622250019    0.90775739167312
O           1.70356512575027    0.13750085592015    1.73449536549672
H           0.68460621915060   -1.05525766923037    1.70098129491938
H           2.56623007868310   -0.15306356868950    1.34917154368720
H           1.30094808794714    0.71062945129129    1.06564861427990
N           3.85152091684770   -0.68481607152084    0.31813753477598
H           3.22505012335047   -0.71104086393770   -0.48490523641681
H           4.30873191793848   -1.58551288789836    0.38453638654178
H           4.56523747367233    0.00683921957828    0.12567912405673
