    26
        -50.44982924  Gyration_radius:  2.46286392408 Dipole_moment: 6.409
 S           1.44933161086599   -0.94734505563064    0.42001664282854
O           2.00518432601008   -0.66877937888822    1.70984384995864
O           0.91813303169641    0.22548237698741   -0.26660074162810
O           0.21405033479320   -1.92588264359860    0.58389892625810
O           2.34744637584676   -1.69160753275907   -0.48230504494232
H           1.96302925805370   -1.41781896888188   -1.75144451816852
H          -0.44765075713816   -1.43727036547084    1.14371835306344
O          -1.46514016076614   -0.47095024473606    1.93329478168928
H          -1.78593445566961   -0.85005524922869    2.75328626398191
O          -0.52953233924469    3.03828175367691    0.60441300242913
H          -1.04265381416617    3.70968869013552    1.05760017210915
H          -1.17982430327546    2.41532286591080    0.21896667598230
O          -0.89169520474306   -0.72568436537519   -1.77504644485623
H          -1.14478970904045   -1.51108637141596   -1.28014700182751
H          -0.27611349184923   -0.22985315808095   -1.15680587998541
O          -2.37912139690279    1.17733552668366   -0.15572879755777
H          -2.22251530749051    0.58122052087551    0.59256923099855
H          -2.07483281714891    0.70443909924077   -0.93926505206353
O           0.31027655303302    1.26576523559997    2.48251722610046
H           0.21646947063441    1.92985879416072    1.76526650274557
H          -0.80219434535360    0.26117210408468    2.20354015002000
H           1.07866248588995    0.70997737784034    2.25563234827435
N           1.54153406142707   -1.11616657750975   -2.78290493594514
H           1.77109705029031   -1.79786806301957   -3.49818002361602
H           1.92253662196733   -0.20271998606145   -3.01075781194408
H           0.50424693246085   -1.02545637459188   -2.62537785403237
