    26
        -50.46291877  Gyration_radius:  2.52929517821 Dipole_moment: 7.115
 S           0.26578148012578    1.62366639177581    0.27315933435009
O          -0.72244017799747    1.03339273315294   -0.62456311442478
O           1.61433723676197    1.46072851753069   -0.20653055021748
O           0.10581733967697    1.08931068039562    1.63502845028154
O          -0.07881281723893    3.14557444489708    0.33883936902482
H           0.48318134940767    3.45978434793333    1.07100070520093
H           0.27546457650445   -0.49342290447967    1.60894378864131
O           0.32397212230879   -1.48382477257432    1.53384164066709
H           0.68359181183362   -1.79197516811173    2.36739257658435
O          -2.05322648581207   -1.05384127603126    0.26088038559206
H          -1.71354919705924   -0.16621135157139   -0.00574802381888
H          -1.38199234147092   -1.37651679028021    0.88641905510843
O           1.19598897990230    3.24008460969745    2.66405171179534
H           0.65602259168038    3.55324304726619    3.39328863658468
H           0.91247755480162    2.32094942350539    2.48305944651634
O           0.24671194745175   -0.44260106944773   -2.58057106300734
H          -0.10447715355798    0.28427092930901   -2.01663354632586
H          -0.70944443658372   -1.47049014223477   -2.33539633406795
O           1.96684469326668   -1.11405860028654   -0.71576479153837
H           1.03895942863902   -0.75146895102457   -2.06841817679927
H           2.06664670018668   -0.15650327391017   -0.53040978117426
H           1.46223733041954   -1.45293197677101    0.03948749666567
N          -1.46649268857269   -2.22342646136188   -1.97613866275792
H          -1.02768593262593   -3.12766947798350   -1.84006330577756
H          -2.24005321921331   -2.29571266120345   -2.62741406984379
H          -1.79986072283083   -1.81035023819210   -1.02774120723575
