    26
        -50.44835624  Gyration_radius:  2.64745306584 Dipole_moment: 5.188
 S           1.49522927231740    0.11788537958000    0.22237091321732
O           0.75109650480881    1.13632220011987    0.89039507984379
O           1.55777553691643    0.22287971916181   -1.21377494609214
O           0.93479214424169   -1.27983929529802    0.58770837912673
O           2.91179497855491    0.04061640015210    0.79760095757459
H           3.41333916285114   -0.58587127674755    0.15485725047159
H          -0.04546127824307   -1.37597469082580    0.32194369753609
O          -1.49822647216649   -1.53498714179908   -0.09479191039052
H          -1.81987924555056   -2.39374536759633    0.18605687982935
O          -1.04243999941924    1.19831375156316    2.88307936040928
H          -0.32535976403955    1.16085225213461    2.22225159697264
H          -1.21547137489267    2.13192951964749    3.02052989188523
O          -1.01880162706171    0.43887458494172   -2.06641855785979
H          -0.06654673175779    0.50470000174933   -1.88882070403716
H          -1.30256356095985   -0.37777270206317   -1.63614603974810
O          -2.60011186689717    2.12456829851439   -0.69257596316647
H          -3.31372935463137    2.33944135598189   -1.29500742107177
H          -1.93901240450186    1.62627299735493   -1.22321243584930
O          -2.85298853349290    0.19804537875710    1.16789679393223
H          -2.27821647681145    0.49304364355634    1.90707107241682
H          -2.86515739095874    0.95614210466126    0.54338977807020
H          -2.05921436226634   -0.84432160131188    0.42755858510316
N           3.79585359549496   -1.46262808882966   -1.07502798995477
H           3.61097455837795   -2.45157036985435   -0.97517615337864
H           4.69805901504053   -1.33777303837821   -1.51427293772297
H           3.07426566503701   -1.04540402513424   -1.65748517715958
