    26
        -50.46291878  Gyration_radius:  2.52933214157 Dipole_moment: 7.115
 S           1.40062128399557    0.73181465017141   -0.53310879191097
O           1.36662071518598    1.58909619928130    0.62411154166174
O           0.11759987226405    0.67796437615891   -1.22728345930821
O           1.85594494743742   -0.62500013394260   -0.19023851634744
O           2.41844911657080    1.30411485030174   -1.57029466924813
H           3.27606229330591    1.15803410998746   -1.13005099852298
H           0.76995009405542   -1.33300052205623    0.73378966341270
O           0.03575310269048   -1.75707209908452    1.25343304672983
H           0.46039650663269   -2.38092869168866    1.84467563772751
O          -1.17145426059470   -1.61303965281277   -1.19156552125450
H          -0.61793194270834   -0.81841496281358   -1.38273546709984
H          -0.80107746318499   -1.95422346678776   -0.35945789902428
O          -1.90699939596952    1.81061115070394    0.02235240157276
H          -2.75226179397110    0.69551207936056   -0.24744665276648
H          -1.13115642602688    1.60551662034179   -0.54835413191280
O           4.35598988594527    0.16370307423709   -0.16099625412430
H           4.89129098151237   -0.45551940404408   -0.66245014078054
H           3.50754177828565   -0.28813684112755    0.02317326174414
O          -0.67914062068322    0.81902776024959    2.11908449639410
H           0.14603933260393    1.20789723443029    1.75978126595538
H          -1.56506720903038    1.61314276582225    0.93310001957979
H          -0.57722836361220   -0.13422960543776    1.97490237618545
N          -3.27191860020482   -0.28005666533025   -0.46515765457893
H          -3.69615640171080   -0.64983506528594    0.37864669588758
H          -2.46447923429644   -0.92358427890544   -0.80440355380897
H          -3.96738819850653   -0.16339351172126   -1.19350669616216
