    26
        -50.45050184  Gyration_radius:  2.5955447281 Dipole_moment: 4.881
 S           0.52725791184013   -0.99910791787369   -0.79558860510797
O          -0.25362796852669   -2.10709101170002   -0.34747974102266
O           1.22951882321572   -0.29401789615224    0.25185510241674
O          -0.36616573296983    0.02170225217691   -1.54627880536095
O           1.49878181666353   -1.44787562056141   -1.87494574713962
H           1.98633171648410   -0.63020421254577   -2.25423045040693
H          -1.15116100596204    0.27632705095785   -0.96118572547785
O          -2.31749574777472    0.58933752055819   -0.00299994657701
H          -3.09823388213610    0.88439653653391   -0.47574224309862
O          -0.42530386638742    0.80589599583291    2.09840586135435
H           0.26438226094520    0.41432951139531    1.53485376587802
H          -1.15766089271471    1.02176943728641    1.50815761473273
O          -1.37436145292588   -1.48212872544482    3.16475827777992
H          -1.03165982858464   -0.58646369324776    2.95227331343561
H          -0.61399786722604   -2.06599531696852    3.15574277679561
O           2.75461396460191    0.59424720404435   -2.69192918766948
H           3.68304052034752    0.45073498463515   -2.49461559146319
H           2.43441082874626    1.31804641599749   -2.07040382957722
O          -2.66474362927302   -1.78758453879171    0.83937190784691
H          -2.54242297759466   -0.34199608210855    0.36081031166091
H          -1.90893860127378   -2.16900690435725    0.36135760576264
H          -2.37322415268741   -1.75870403635863    1.77974259010325
N           1.85816490450384    2.24347336382099   -0.84616947507106
H           0.97798365362894    2.68173583861474   -1.08499332560315
H           2.41102562446739    2.91368962446030   -0.32711700065990
H           1.65348557062931    1.45449021979550   -0.23364944350518
