    26
        -50.44982916  Gyration_radius:  2.46278072066 Dipole_moment: 6.409
 S           1.05918369225055    0.75260073067758   -1.21837842858064
O           0.32846391761007    0.92555548844981    0.03271137717550
O           0.38638329979357    1.27980652979809   -2.36709492637919
O           1.22882248855095   -0.81376038232574   -1.38551677055819
O           2.44727865243958    1.22352272800725   -1.05661140360074
H           2.76019364304238    1.11762454838028    0.25673659037551
H           0.30659842758678   -1.18293534326348   -1.44246973121029
O          -1.23609890979002   -1.63893734836660   -1.37712821915149
H          -1.50739501375797   -2.16272564386184   -2.13280788563858
O           1.13523754180340   -1.00449138837587    1.47450220441678
H           0.67532602238962   -0.26974353854430    0.96887999566233
H           1.36839604756794   -1.64890862915706    0.79907229269304
O          -2.81839805108834    1.00851964400094    0.95624097306698
H          -3.76443120866327    0.86663088362696    1.02181481407447
H          -2.39915811340795    0.16365648265412    1.22075299134801
O          -1.73535534311911   -1.46196504930341    1.38598329355123
H          -0.84663556469661   -1.37756783568732    1.75098397656110
H          -1.61865397604021   -1.67601541888363    0.44768366032802
O          -2.14258664527992    0.72075783175186   -1.65806966937545
H          -1.30339538791260    1.12505772401998   -1.94644390291863
H          -1.67227012425820   -0.72075268541623   -1.50147523864726
H          -2.30226890258965    1.02052054571880   -0.73668843584575
N           2.91173458345009    0.97660070839054    1.39226123359734
H           3.89287522044849    0.88681131096722    1.63382553923451
H           2.35472612269481    0.11362527802638    1.62526526259518
H           2.49142757091055    1.77651278875702    1.85597042729007
