    26
        -50.46942324  Gyration_radius:  2.44394975574 Dipole_moment: 5.030
 S          -0.99397946176081    0.61432807274719    0.07200727142542
O          -2.12268371172343    0.70319109562527   -0.97273995450383
O           0.17305158920916    1.30846614442617   -0.46484133128588
O          -1.44318331228561    1.21441014637039    1.31693597065249
O          -0.70126483306525   -0.81131728252772    0.28502614033260
O           1.08530795786462   -1.69355563047119   -1.37125902248196
H           0.95677569846034   -2.63749956266107   -1.47909764874823
H           0.41296504656539   -1.39635084512362   -0.71325598275088
O           2.19316652509761    0.13244125761426    0.69103263199388
H           1.57787971749652    0.69731483773422    0.17009526745849
H           2.24732115309088   -0.68008251103074    0.17377334964471
O          -0.79277764228364   -2.00637037620770    2.62886765408862
H          -1.70728950925425   -2.02245021891495    2.91648473912437
H          -0.81310254424267   -1.70674546546172    1.69053929904130
O           0.25263337537353    2.20358537839501   -2.98391459269744
H           0.34937617579672    1.98107934546763   -2.03622059618609
H          -0.37747716971125    2.92475993901081   -3.02497224813175
O          -0.77987642587692   -0.28000474697889   -2.92115577354834
H          -0.37626838167986    0.56370541086648   -3.21353606436897
H          -0.04630671263409   -0.78844667065461   -2.52903742530344
H          -1.70556852809595    0.27521602390696   -1.79276302899533
N           0.53966355722699    0.29166541156491    2.74566618571690
H           1.30580850610362    0.17640228166402    2.01189208325322
H          -0.25988684508707    0.80753298864880    2.26429055779244
H           0.15058988599777   -0.65608176458730    2.96970189224770
H           0.87512587941484    0.78480673057892    3.56648061622347
