    26
        -50.47472233  Gyration_radius:  2.50589913626 Dipole_moment: 3.304
 S           0.08236826266979   -0.52063202643632   -0.99946880789623
O           0.00120910824741    0.91854038620528   -1.27332435062346
O           1.37056436961277   -0.87498501981381   -0.42359489464372
O          -1.00790901613799   -0.93646365828692   -0.11815104901821
O          -0.05455580968905   -1.27575738852647   -2.33703454933659
O          -3.33956788703516   -0.36708924657288   -1.22342717569239
H          -3.85868269516340   -1.17297507263130   -1.22344107745054
H          -2.51703696602204   -0.57157199559956   -0.72673983424240
O           3.07070535601582    0.66644142147372    0.97673646645882
H           2.68025857152998    0.12004800545933    0.26694655649781
H           3.11532285908041    0.07566513860356    1.73633389913794
O           1.55441901742915   -1.59882929203406    2.11905759981036
H           1.42873621649065   -2.54127726423097    2.23641681769010
H           1.47020585712007   -1.43250419833977    1.15279971813225
O          -0.58203593322903    0.06509402511816    2.30413496370500
H           0.14936933902036   -0.53379505066272    2.54785203724269
H          -0.93656404497928   -0.32934070899698    1.47863776329748
O          -1.76251346300189    0.39682491788267   -3.24727348178332
H          -0.72919168329190   -0.73317760907953   -2.84614061010845
H          -2.52783963193699    0.19060779509224   -2.66882726520932
H          -1.24171652598264    1.04493893589112   -2.75107980928693
N           0.72865388664461    1.92101123132412    1.01722945047309
H           0.60115439085895    2.90995280684389    1.20073326556001
H           0.41740028393285    1.65758616627798    0.03606595715152
H           1.73702161732606    1.62209734657339    1.09343905595620
H           0.15022452049266    1.29959036446649    1.67211934417541
