    26
        -50.44982930  Gyration_radius:  2.46276248046 Dipole_moment: 6.412
 S          -0.58831050112800    1.60677797191748   -0.49520263326864
O          -0.99533858928424    1.71015749666436   -1.86407647810158
O           0.57022130675847    0.74584188540903   -0.28084806931231
O          -1.75575602563259    0.94713361365960    0.34859275980102
O          -0.38044228392326    2.90244631303697    0.17771043780649
H           0.48027387045941    2.69318372736364    1.20220596484172
H          -1.89066834796219    0.04011679622666   -0.03750714474231
O          -1.89219754666435   -1.43821898601063   -0.67561479763107
H          -2.75161960903541   -1.70628268406898   -1.00508510060227
O           0.26625817884246   -0.09607064853324    2.09683337279104
H          -0.69129760058306   -0.05608288595889    2.18204275358337
H           0.43769442959198    0.09160281711048    1.12600221029852
O           0.36190002757473   -2.57070229043353    0.57133178554316
H          -0.49457378626833   -2.31092574776911    0.19887540438399
H           0.54769745366351   -1.93784831029904    1.27492731952418
O           1.81206468700575   -1.95852333357379   -1.66116237102370
H           1.39628731809040   -2.16430494236081   -0.79842532085683
H           1.91759650150242   -2.79859736503132   -2.11125730698705
O          -0.43048849992921   -0.79323552041350   -2.65486927079666
H          -1.32141612701518   -1.24807009810836   -1.50422846256167
H          -0.51588151232428    0.17151415534550   -2.54186754453556
H           0.47573104502458   -1.03552159712256   -2.36445481211930
N           1.21086406748001    2.39227121512883    2.04347205474837
H           0.91224432777718    1.41911185903154    2.31366226178520
H           1.17834562924866    3.04224433384942    2.82157527214365
H           2.14081156706851    2.35198222535895    1.63736770582043
