    26
        -50.46291874  Gyration_radius:  2.52932710689 Dipole_moment: 7.113
 S          -0.81703350410392    0.96673943040384   -1.08597454780718
O          -1.16025538405093    1.85360201214538   -0.00385240241719
O          -1.09347858543927   -0.43189906958763   -0.77230434985433
O           0.58568459646463    1.13220850608415   -1.49926115544216
O          -1.69982990755232    1.30336129486302   -2.32951941852377
H          -1.35669639576000    2.17338180012744   -2.60513952347278
H           1.54626126946070    0.63947759860774   -0.32913528395124
O           2.10471385679771    0.26093121322061    0.40143022075108
H           2.92678434795986    0.75391945693743    0.38445440804918
O          -0.01764564214934    3.28179942779838   -2.87337788206165
H           0.38265886549885    3.22602111823628   -3.74412396166008
H           0.43184236471626    2.61314938158927   -2.31763183193196
O           0.97216546950816   -2.04069927726444   -0.53497765810470
H           1.62508172831041   -1.37066297321492   -0.26916115816068
H           0.19128234536293   -1.50504276327118   -0.81377306439534
O          -1.74486238364054   -0.93557128297981    1.73062456584395
H          -1.74140206610143   -0.73152398668618    0.76723512934253
H          -0.86011595633896   -2.05158908273431    1.78077978534590
O           0.03485092110704    0.94109037200588    2.17613807389735
H           0.86154916548659    0.66713804040039    1.75023434333174
H          -0.42512859428089    1.47262785251380    1.49269498180152
H          -1.19548507645703   -0.20110399613390    2.11014883518219
N          -0.06901755937653   -2.84924958751778    1.69630058157824
H          -0.48940407772662   -3.77080692620785    1.65377154321472
H           0.57884100012894   -2.78716668919495    2.47422492938538
H           0.42863920216835   -2.61013186012324    0.76019485005123
