    26
        -50.46812565  Gyration_radius:  2.51026672521 Dipole_moment: 7.109
 S           0.31416009923091   -0.83165480850499   -0.79398853467843
O           0.49626295850579   -1.68836109388355   -2.07207545252393
O           1.43800724696589    0.09334417771624   -0.69363383749485
O          -0.94638807577542   -0.09406209093770   -0.92697615664216
O           0.25710440694577   -1.74805232301477    0.33366382341988
O          -1.05046578456478    1.93837151280833    0.69260482621241
H          -0.95410425890059    1.20248704817524    0.03526445464880
H          -1.96747783608444    2.21324809873917    0.63280109319191
O          -1.14221752300221    1.14948438353062   -3.25341118878116
H          -1.14457901025479    0.73123713434736   -2.36433236557591
H          -1.74937232627870    0.63615534894502   -3.78923248427824
O           2.12567659381505   -0.39798782309997    1.75298527580310
H           2.05525844607266   -0.04975977462658    0.83129763162241
H           1.81324873560248   -1.30519264893621    1.63834042458317
O          -1.46651632601976   -1.55814469425901    2.27423183183689
H          -1.48546468311125   -2.43071202924930    2.67053689227255
H          -0.92971368382225   -1.65312155833295    1.44652502033186
O           1.42126155093518    0.32450435577844   -3.36765852379172
H           1.72367214448961    0.59264562651465   -2.48546446071580
H           0.88507820345852   -1.03762198618511   -2.72597464175405
H           0.57930795637556    0.80284343815495   -3.51635220555257
N          -0.05557461193765    0.63876552788189    2.76994869381000
H          -0.00342451450147    1.10712279545843    3.66738422845850
H          -0.44253763844130    1.27302038939208    2.01678883736133
H           0.90678598261598    0.29719024980034    2.43568684492145
H          -0.67798804231390   -0.20574925622506    2.79103997331564
