    26
        -50.45875117  Gyration_radius:  2.52117827833 Dipole_moment: 10.921
 S           0.92759947562500    0.54393180350434    0.27175828922650
O           0.55000912557060    0.60695905464830    1.65475769229375
O           0.01255057129912    1.27216479467879   -0.60608554016417
O           0.87421551732693   -0.95928547655426   -0.20881817194987
O           2.32128644307569    0.91683255712597    0.01054198309748
H           2.60715873349280    0.30025377096238   -1.19645297266331
H          -0.03580306322097   -1.31015494688262    0.01485882245047
O          -1.53120401476931   -1.75189614029309    0.29254160784708
H          -1.94270629718682   -2.23235619940133   -0.42763334719441
O          -1.89700036458644    1.15929473185082    2.87829956511517
H          -1.84456953286531    0.26260522112275    3.24793177885890
H          -0.98447228592288    1.35244369949369    2.62175914725660
O          -0.79560292400713   -1.40057728904480    3.03451781471187
H          -1.16001849386626   -1.82956477567666    2.25246510702265
H          -0.12582666437871   -0.78696365349260    2.69701008246591
O           0.45547151675524    0.85194305928403   -3.11306969867107
H           0.17925712020622    1.01401214260056   -2.16973033718985
H           0.38050502069669    1.70126340472172   -3.55181652517890
O          -2.43825543673730    0.63802961949835    0.31464333178026
H          -1.63856706834894    1.04179873110559   -0.06819283301960
H          -1.98776523981722   -0.84368697876322    0.32236822116615
H          -2.43256794207756    0.90809717458366    1.26362719740519
N           2.65424588062532   -0.24835613848655   -2.18165694269460
H           3.55125584906181   -0.14916460501428   -2.64538245654516
H           1.85390584292885    0.16316815197130   -2.74092957753746
H           2.44689825115116   -1.22079172351296   -1.96731223785460
