    26
        -50.45127726  Gyration_radius:  2.48010480024 Dipole_moment: 5.946
 S           1.31284815935064    0.59206702484809   -1.17159371259721
O           0.44267392994600    1.19344376937644   -0.19059441639812
O           1.02523912125724    0.93534576437876   -2.52560583380291
O           1.25547248535475   -0.95713243945962   -0.97252670285429
O           2.76393936979017    0.87259557949622   -0.82206274179492
H           2.91777928292089    0.44552940810783    0.15436826688396
H           0.31598705591100   -1.29446638782906   -1.09883920279211
O          -1.16295963781476   -1.79533947640875   -1.17255839830270
H          -1.22803928965963   -2.75080257725712   -1.21993623467909
O           0.25317021350039    0.25677285459307    2.21028996853906
H           0.27484755268038    0.64633646720174    1.29876736326645
H          -0.12536452087234    0.94090447427687    2.76652549646945
O          -1.70624008392458    0.78846177575075   -2.22558478896377
H          -0.79632095355318    1.04093649725616   -2.44029297118009
H          -1.69117780506785   -0.17134442009116   -2.12584277541184
O          -2.78896775937704    1.33887831742125    0.19019464917792
H          -2.26234622874933    1.29708247715418   -0.63810246735682
H          -3.69175928635577    1.50222243993265   -0.08764949936442
O          -1.96769433976773   -1.01832465785115    1.13884623451535
H          -2.37536489007327   -0.16013355904676    0.87875682243930
H          -1.51659727104678   -1.52852251820015   -0.25848404328627
H          -1.17014123612147   -0.76427161052557    1.63373596662211
N           2.98703856769211   -0.22181824002237    1.44936887299318
H           3.71769198083886    0.12478780481242    2.05645937564946
H           3.13733065173986   -1.20540119237231    1.26891301827795
H           2.07895495162325   -0.10780755557489    1.90344774391997
