    26
        -50.45127730  Gyration_radius:  2.48016971863 Dipole_moment: 5.946
 S           1.44413127690114    0.21974098267031   -1.14577752537964
O           0.49554630136146    1.08387523799891   -0.48642698867670
O           1.30872016170756    0.14409376994282   -2.56346063807334
O           1.32003742130949   -1.20020829140385   -0.50453462435206
O           2.85903411534045    0.59464034262552   -0.74070653312263
H           2.89801378894707    0.47841503747713    0.32905148921226
H           0.38916912661464   -1.56228070498109   -0.62590268193252
O          -1.08841777333751   -2.06629368979734   -0.70706682739574
H          -1.17658672679708   -2.99274611634397   -0.47616877317371
O           0.03003604455276    0.90271114900308    2.04901807890806
H           0.15789866831089    1.00364862099970    1.07097548661912
H          -0.38402419186068    1.72025238318226    2.33343225361882
O          -1.44221396790798    0.08627450105966   -2.52940370222864
H          -0.50782360303426    0.26553200743441   -2.70990098437066
H          -1.46626678073372   -0.80044380919530   -2.14918083743471
O          -2.75221815264490    1.32821881503951   -0.51619589959846
H          -3.61604268207048    1.39981014258363   -0.92562572393195
H          -2.14417521363380    1.04300244036673   -1.23317627947452
O          -2.10468072550129   -0.63874716146339    1.16995464030957
H          -2.45737591159820    0.10235192253691    0.62527054651680
H          -1.52675332102736   -1.54051683519249    0.04341218815398
H          -1.35546724354451   -0.24716641045073    1.65047435836165
N           2.81319102499659    0.22797585020332    1.76344871080652
H           1.86643012558735    0.46875928189414    2.06260799816544
H           3.48640443036120    0.74312312549528    2.31485670073788
H           2.95343379779276   -0.76402261189879    1.90102560754125
