    26
        -50.46731542  Gyration_radius:  2.58054994073 Dipole_moment: 5.051
 S          -0.61266335704691   -0.12859911948677    1.05116617927024
O          -2.01394035463574   -0.24243974252741    0.69960447152541
O          -0.18295229582172    1.25085897961871    1.23143756546534
O          -0.36467930612453   -0.82286119460358    2.41514773317205
O           0.23745158743200   -0.80852601648285    0.05435397689052
O           2.75943773015163   -0.35094555935173   -0.44879349080039
H           1.85255334009801   -0.63517211021681   -0.17567799807377
H           2.90558236986619   -0.73877371453595   -1.31355284228123
O          -1.86411066045713   -2.63983629720487   -0.37500556380833
H          -0.98214207784212   -2.51947030548618   -0.74029340283967
H          -2.12023342253024   -1.74287900476714   -0.06917615864297
O           0.48307665085851    2.88820094250927   -2.16435428783187
H          -0.11933778706729    3.63113623944341   -2.10039705133694
H          -0.08216046685405    2.07925362042924   -2.12276131620833
O          -0.99962444106885    0.72656951050205   -1.71427483534296
H          -1.80152258906071    0.78725401839634   -1.18376330817655
H          -0.45002920740606    0.09393669143913   -1.21464855716360
O          -1.39209650395415   -3.19918851846434    2.15823204891155
H          -2.24404342596541   -3.18750553923911    2.59971356489829
H          -1.58634327379385   -3.17467178461165    1.18670350748892
H          -0.69955210734214   -1.76147381445617    2.36108301786499
N           1.88458080902426    2.12379497179747   -0.02749554572918
H           1.04925784272973    1.79548569406584    0.56958989944678
H           2.45563145788340    2.78918735971241    0.48070439794731
H           2.41753508349044    1.24884565043469   -0.25750606725627
H           1.47032441543104    2.53781904310646   -0.90003594736783
