    26
        -50.45127730  Gyration_radius:  2.48022346517 Dipole_moment: 5.942
 S           1.55795930466931    0.67203580214545   -0.75425923780407
O           1.56823344938102    1.85332045904594   -1.55319780087817
O           0.55961783165964   -0.30355733594324   -1.11861873043525
O           1.34715418460215    1.02867302950957    0.75277933654240
O           2.92908416077524    0.02056802309035   -0.70577132535057
H           2.85587296261189   -0.76171129902101    0.03018848685936
H           0.42823531704905    1.41126191230229    0.89972197717293
O          -1.04064093357562    1.88762945371524    1.14298301317164
H          -1.16632745209925    2.27017875653454    2.01318297933149
O          -1.17239033521790    2.06153054507112   -1.69093988144260
H          -1.24857517732104    2.29626568014931   -0.75790676167495
H          -0.22183771863100    2.02851865559123   -1.87295304910497
O          -2.66444257892067   -0.19034506315510   -1.57171658175815
H          -1.99003796272778    0.50649439722385   -1.72898665217048
H          -3.48030523018648    0.15487209084806   -1.93795684513825
O          -0.16791030600439   -2.17379270733762    0.50952023587238
H           0.06168633505201   -1.46727960843422   -0.14716719627073
H          -0.59645134473414   -2.86256268568689   -0.00295001342489
O          -2.22352148565220   -0.38980596994770    1.05448009586434
H          -1.54598061949137    1.00647247903246    1.14110082573273
H          -2.50727305069110   -0.37871528883705    0.11125736670148
H          -1.52202618892585   -1.06249764733855    1.08550972469072
N           2.61954408623836   -1.74376720396655    1.08285198845593
H           2.72976790813308   -1.26475996194381    1.96661946178055
H           3.23985966491744   -2.54181589177928    1.05248753194527
H           1.65070517923475   -2.05721063094989    0.99974104135667
