    26
        -50.45958864  Gyration_radius:  2.41980894554 Dipole_moment: 7.277
 S           1.78588662144143   -0.49679487660872   -0.10505975339489
O           2.17418390263884   -1.41888858682213    0.92419832726533
O           1.40729597647387    0.82105757768749    0.40637122583225
O           0.76655875692614   -0.99793676556296   -1.01858269612726
O           3.07083418428270   -0.26383650111491   -1.00592480912308
H           3.74987110085298   -0.46383491673085   -0.37192835359065
H          -0.64660119854288   -1.39465117326150   -0.32431009001709
O          -1.50812841089127   -1.56967926593997    0.12424274459317
H          -1.87932535019536   -2.35273056057205   -0.28430550032965
O          -0.27928787845689    1.00968013389738    2.61143963457036
H           0.47392513308803    1.14752793907486    2.01847120532093
H          -0.23060253708800    0.05624965260482    2.84258652682535
O          -0.00839063845308   -1.64842011886291    2.52019471404987
H           0.85370018879219   -1.67092150892782    2.06899594029887
H          -0.66978490586863   -1.80840406752017    1.83297925733067
O          -0.46898446537619    2.05144166020612   -0.75589744563603
H           0.35590985260174    1.65386889461738   -0.30717188139412
H          -0.52186900481842    1.57023421311393   -1.68679244891768
O          -2.11749189787545    1.01899880924291    0.77661324352381
H          -1.55237749048143    1.09229294964955    1.60361573637022
H          -1.27342150153299    1.67096943661722   -0.12922033089929
H          -2.10109872282061    0.07163205240743    0.55106572963473
N          -0.40307935157007    0.67549724382592   -2.90347715777351
H           0.18795359580002    1.02217233380399   -3.64726929119116
H          -1.25375329644456    0.31198151647440   -3.31239805408341
H           0.08807731751725   -0.08750608129242   -2.42843645313135
