    26
        -50.44824565  Gyration_radius:  2.63840544643 Dipole_moment: 4.528
 S          -0.23923436418378   -1.50170378469116    0.83182438897338
O           0.50504548385628   -1.48200490086229   -0.40112776425234
O          -1.59659205734642   -1.06576053022990    0.74296431555655
O           0.52871800331146   -0.64090509636912    1.87562182400875
O          -0.15929785208807   -2.89055431607458    1.46362271252050
H           0.83046326157904   -3.16079887994452    1.33966920110991
H           0.41873626172419    0.34370919905920    1.68220900146277
O           0.12569496592005    1.84671606510044    1.39155854546535
H           0.14437577833268    2.35588542108379    2.20426751038184
O           0.94991809658617    2.55612846255634   -1.21129663332268
H           0.11044395881119    2.92015900382223   -1.50911197249260
H           0.82562650659914    2.33394182087463   -0.27744592207744
O          -1.97321707516882    1.81862647452405   -2.02395270417160
H          -1.24203325910878    1.18255604714286   -2.23971341682254
H          -2.71391194864229    1.56757576120323   -2.57630768935633
O           0.11520810543149    0.25838805587814   -2.46698175369397
H           0.71769131737512    0.96797377206943   -2.18058802833596
H           0.21726348586403   -0.44929886736273   -1.81024302781979
O          -2.28002127779733    1.54510456606092    0.62034703991702
H          -2.25784782585397    1.72409827709344   -0.34753824317489
H          -2.28751166444421    0.57562722605392    0.69949383459293
H          -0.85509766099920    1.80284577325880    1.10265049928401
N           2.30728649542701   -3.20036029114788    0.89092858459337
H           2.70175914209520   -4.06719819141960    0.55089633319696
H           2.95548427445497   -2.77240277636777    1.53822126166573
H           2.15104984798920   -2.56834828105235    0.11003210293433
