    26
        -50.45958862  Gyration_radius:  2.4201142547 Dipole_moment: 7.270
 S          -0.18438453412190   -0.17244377898079   -1.84190659813832
O          -0.30002874325437    1.13773693387137   -1.20024659430971
O          -1.44919212166178   -0.73538976252163   -2.22152604285700
O           0.65961989576178   -1.05435245958967   -1.04519509753000
O           0.62043954071983    0.06858374579414   -3.18743549105446
H          -0.10572125144834    0.15183137309906   -3.79471633062515
H           0.01295191657195   -1.52254175095679    0.36902379736049
O          -0.38733966413567   -1.73891755873541    1.24480111068893
H          -0.16889175748406   -2.65296310524108    1.43106428349704
O           1.30045189652426    1.69044192282099    0.67601020235986
H           0.69448613005575    1.56911865859932   -0.13498958692147
H           2.07538502431548    0.99682251256639    0.53449019035829
O          -2.85084274197515   -0.97142568753782    0.08929299966612
H          -2.49983413843055   -0.94338748649464   -0.81814730215878
H          -2.17000144484715   -1.40631801300240    0.62099362962184
O          -2.22577907289361    1.53784059741825    0.76699046897524
H          -2.69949986573915    0.69268307891301    0.60510718591737
H          -1.68516643091563    1.66170211178638   -0.02702444772037
O          -0.29809416742974    0.77425247910760    2.33063829403765
H           0.66857117945191    1.33296983212694    1.48663681174778
H          -1.12414114950753    1.14463920465997    1.89555722918179
H          -0.32599014437445   -0.18006349004527    2.13836271599252
N           3.00308416412737   -0.12880679048778    0.12822131267901
H           2.30871608745133   -0.65117396007499   -0.41400133495454
H           3.36835772390605   -0.72902807934085    0.85576711683396
H           3.76284367934031    0.12818949224507   -0.48776851266030
