    26
        -50.47023797  Gyration_radius:  2.49912141018 Dipole_moment: 0.889
 S          -1.18046914248830   -1.58437733279112   -0.37648198496780
O          -0.44995339892424   -2.34184066927786   -1.36663632373328
O          -1.63500910385407   -0.28783331046261   -0.85197356172552
O          -0.44887378276195   -1.47394182233494    0.88270892266576
O          -2.49400332195068   -2.41690608792849   -0.06447521330925
H          -2.25546976412643   -3.30257259049064   -0.31884355649755
H           1.09798787196038   -0.99368408050367    0.81675903158692
O           2.03496603409906   -0.68796844144688    0.73811825556339
H           2.52007595173718   -1.14218501513533    1.42861540754698
O          -0.53134046698374    2.43447801571836    1.99795913088983
H          -1.18393185596087    1.69942311920046    1.90904024104638
H          -0.47525433873308    2.62894901399357    2.93394700963000
O          -2.17960506292283    0.35200816662908    1.73285864903208
H          -1.53925557197119   -0.37951379566734    1.68363159046156
H          -2.50652096752169    0.41211200643355    0.82721038200784
O           1.80265002310337   -1.08028515626503   -2.00600825286838
H           1.03281554079432   -1.67899787532707   -1.90410241838289
H           2.19318942984604   -1.02607829531169   -1.11891879524717
O           1.54143407068186    2.00448823305351    0.35955422606787
H           1.85926736909214    1.12557132582481    0.62983953444484
H           0.84244162350187    1.62204536211125   -0.97057575433251
H           0.82214362570507    2.24050858596483    0.98490472892251
N           0.38689026978598    1.12506561937038   -1.80831773782522
H           1.03035391060614    0.32106981377635   -2.07550323489513
H           0.21777375909415    1.75742171209161   -2.58188507192769
H          -0.50230272183655    0.67304350871723   -1.48142522404052
