    26
        -50.45958870  Gyration_radius:  2.41988086483 Dipole_moment: 7.263
 S           1.70898484769197    0.54147680516636    0.49166374863336
O           1.72084598514784    1.79539591995841    1.19020027267903
O           1.26012174379031    0.65318738476495   -0.89678627283041
O           0.98968190816537   -0.52801009419532    1.17245521381104
O           3.21618923885077    0.05079798011744    0.42611720404749
H           3.66044852309123    0.88839981623160    0.48999295506282
H          -0.58607352701827   -0.23792514267862    1.43494836053808
O          -1.55072151661655   -0.05000261773971    1.52555981333100
H          -1.82163915002170   -0.39483873033367    2.37735147289369
O          -0.84995667884947    2.66000962933940    1.12222529895415
H           0.10578707684974    2.50702397067124    1.22472644780473
H          -1.28038492671486    1.84642582258711    1.41898257662226
O          -0.11390117865665   -1.23738365530136   -1.85816808169531
H           0.51648127770726   -0.49210219928673   -1.56369427671865
H           0.08866279811518   -2.03069329173831   -1.20241855518882
O          -0.99873360751593    2.16180803185664   -1.49999144481151
H          -0.09611127191958    1.81170849697752   -1.52573053241119
H          -1.07086865212223    2.57213209997322   -0.61043638780433
O          -2.19742381475538   -0.11257172416449   -1.13429962818497
H          -2.16212265113856   -0.13959549928846   -0.16131621084458
H          -1.90357223318030    0.81787279489963   -1.37282712921706
H          -1.08849627695247   -0.82429433900210   -1.60223311588296
N           0.51766977874813   -2.96100858409551   -0.08566210042332
H          -0.19115733442860   -3.52869456132171    0.35966714016405
H           0.80736063793776   -2.22380045848461    0.56364630701422
H           1.31892899366231   -3.54531783488021   -0.28397308548847
