    26
        -50.45958859  Gyration_radius:  2.41982811624 Dipole_moment: 7.270
 S           1.27627620635185   -0.06210377571255   -1.34859415901080
O           0.99815695331012    1.18747361590303   -0.63965040693723
O           0.70353834649439   -0.11216790585629   -2.66387507371076
O           0.95972219901927   -1.20619972531982   -0.50276312413533
O           2.84993349495281   -0.11368309293544   -1.54312136367016
H           2.91457433697341    0.23910744866429   -2.42312567911889
H          -0.62147979701896   -1.42674142798348   -0.20676613295448
O          -1.58468596492530   -1.49426695225609   -0.00259992900048
H          -1.80146409570276   -2.42742042812013    0.00636153587309
O           0.62077910049912    1.07855404610916    1.85653129939157
H           1.03862863434747    0.15175612043306    2.11574060039822
H           0.86061069510106    1.20328645225212    0.87332801331886
O          -1.96827968563444    0.14992911437739   -2.27114977147738
H          -1.05138982360617    0.06084250336133   -2.58540850115599
H          -2.07518308798890   -0.51616183550041   -1.57820562531603
O          -1.57853603514221    2.23900805901998   -0.64923864162671
H          -0.61564925978265    2.17174298831755   -0.72820998546162
H          -1.91811455141817    1.63066578596198   -1.34168037521901
O          -1.81118237444669    0.78849043208112    1.49250598314436
H          -1.88371353588938    1.44571092594745    0.73651203260914
H          -1.89113787223249   -0.08439039610158    1.06783088539760
H          -0.46113411373939    0.96459769544140    1.81321470201868
N           1.65973316848484   -1.22842914751001    2.18647386354301
H           1.18758748517945   -1.93593149222032    2.73375937461837
H           2.64577608120889   -1.25508283308923    2.40953385328706
H           1.54663350561880   -1.44858617527625    1.19259662521255
