    26
        -50.44824560  Gyration_radius:  2.63837284832 Dipole_moment: 4.526
 S           1.02707312227825   -0.84878779626245    1.10918358978748
O          -0.12979774317064   -0.69700543901645    1.93311960477265
O           1.50370302678176    0.35304146695140    0.47437065819734
O           0.75621659655383   -1.90746258114573    0.00185991438719
O           2.16280730864972   -1.50787359740060    1.89037795059364
H           2.97563006638779   -1.42885892779412    1.25702290304231
H          -0.09034395577659   -1.69174683936469   -0.50389354439286
O          -1.45727160036739   -1.36184452251134   -1.17618917340019
H          -1.88540997767353   -2.16506872077044   -1.47883439352645
O          -0.04247366697345    2.46428268691415   -0.30031165415596
H          -0.26132275952727    2.16678515486702   -1.20149294441004
H           0.55963341310008    1.79121835167735    0.05608291356205
O          -1.43159292693233    1.21782251393245   -2.31766481565438
H          -2.21319197564600    1.55581637381304   -1.86960719248856
H          -1.36408848288787    0.28590289694619   -2.06491966640903
O          -2.55749496676843    2.13480195145968    0.44635847861293
H          -2.77826797221944    2.71253928302043    1.17722657052495
H          -1.60262636936445    2.30916880326688    0.23754082606597
O          -2.62363725121906   -0.49928718751680    0.91383670051396
H          -2.71643227709573    0.46992622162168    0.76781491541841
H          -1.99721687703580   -1.03432385800168   -0.37083930342141
H          -1.85480296670985   -0.59546977224067    1.50194563925655
N           3.90702295615043   -1.04108508105644    0.08827743349864
H           4.85014427122239   -0.73266010393468    0.28331046294755
H           3.33740058864796   -0.24340033803384   -0.18179051208879
H           3.92634040971772   -1.70643094938381   -0.67278535125674
