    26
        -50.44824559  Gyration_radius:  2.63841489444 Dipole_moment: 4.527
 S           1.19123664686312   -0.29547381024007   -1.22429577783308
O           1.23302314086286   -1.55424573774253   -0.55054296452075
O           1.30775192087679    0.86764471333791   -0.38277209448498
O          -0.12719124734743   -0.17295804538322   -2.04111470328493
O           2.24243154179947   -0.24151995050830   -2.33180211909079
H           2.22429996500122    0.74451784706625   -2.64084295587107
H          -0.93050493991497   -0.36014648147249   -1.45935183452070
O          -2.12049787742995   -0.76045016362506   -0.53524582014171
H          -2.82678807988237   -1.15686498382167   -1.04914192744100
O          -0.46082549419188   -1.26885266913595    3.07860623285016
H          -0.04166771267153   -0.41635690022023    2.79000808867630
H           0.15267399535126   -1.66990203480673    3.69467566637527
O           0.45329273818972    1.05284229959112    2.20274915168810
H           0.87178813965775    1.00044321075613    1.32832739722535
H          -0.45633832940487    1.35922033448848    2.03781550826603
O          -2.25111573674763    0.90853965050853    1.73512118183441
H          -2.24063136109226    0.21140692810747    2.39821860226944
H          -2.28518477873176    0.45866819771630    0.87877258800245
O          -0.89332514877688   -2.56253849649090    0.77611159310655
H          -0.03475024553424   -2.43630639729999    0.33664694235201
H          -0.77931335468458   -2.18371759563551    1.67763336929949
H          -1.69946826285557   -1.51890561358970    0.00767750698780
N           1.94416536035570    2.25999668056409   -2.73318267714540
H           2.71020492889241    2.89968024970449   -2.89634329175886
H           1.64639399947361    2.32628356183456   -1.76332459705397
H           1.17034017182689    2.50899520632025   -3.33440305584579
