    26
        -50.45958880  Gyration_radius:  2.4198916748 Dipole_moment: 7.269
 S          -0.23826068213558    1.68347890410900   -0.74935948177400
O          -1.34824416963659    2.39615049840407   -0.18326134016744
O          -0.63238471366125    0.47864591997375   -1.48052940000822
O           0.83273566677744    1.37807437468726    0.19108855695146
O           0.41618386029743    2.65193576316854   -1.82199224274447
H          -0.33850690949521    3.18873787683949   -2.03511931334927
H           0.39832360672218    0.44863048153820    1.44980386744419
O           0.11086180564863   -0.16400299483079    2.16814798218747
H           0.55706437503721    0.11768734441380    2.96778184977499
O          -2.52182519423041    0.63779779291128    1.51769926803832
H          -2.23763590405383    1.37588368112259    0.95042245727588
H          -1.72925619049003    0.34851565170769    1.99034984442479
O          -2.48607840174799   -1.26639599560558   -0.35838026982559
H          -2.74934976928581   -0.66201843471246    0.36980971510610
H          -2.03664044623883   -0.68944943514403   -0.99330216115617
O           0.88839557414837   -1.53605406551194   -1.36136013010989
H           0.28542061920144   -0.73140106341457   -1.53046853167131
H           1.79850864078656   -1.12292302336347   -1.04247456674354
O          -0.34728401522274   -2.37229749442332    0.61485069229597
H          -0.15505878743773   -1.72288782029810    1.31478991262029
H          -1.26111959019556   -2.12228357758618    0.28150680114661
H           0.40758535978733   -2.00336724014391   -0.50383140580915
N           2.94634830798257   -0.27245797890674   -0.53770155342890
H           3.58250544421837    0.07127873737556   -1.24473770528273
H           3.48977073366884   -0.62012229267600    0.24130456231287
H           2.36794078925018    0.50884439952391   -0.21503741657399
