    26
        -50.46731545  Gyration_radius:  2.58036862489 Dipole_moment: 5.050
 S           1.21913766124330    0.07285714881509    0.05791195249469
O           1.69725064625171   -1.24880698368483    0.41040881165442
O           0.90923728789974    0.89302218582170    1.22031317646072
O           2.33103348885016    0.83745488453400   -0.70561342677019
O           0.05160806811413   -0.01158781327134   -0.84133325661635
O          -1.78713366610822    1.80428011670837   -1.21891693643632
H          -1.02940724808927    1.16917911450903   -1.19811815753506
H          -2.51770444389346    1.32683839919815   -1.61622316451198
O           1.12618285519030   -2.40089630159681   -1.88565668736257
H           1.36753448532828   -2.18044043439559   -0.96003965907825
H           0.33158010655115   -1.88360173041741   -2.04934483955329
O          -1.00673015636805   -1.53800987151797    1.04628985413926
H          -0.14827374257794   -1.84948836318495    1.35323039996672
H          -0.78184234963943   -1.00635524236484    0.25961260269617
O          -2.53241555408020   -0.02772106758429    2.61620240358678
H          -2.06092777992644   -0.67191739405887    2.03449989570652
H          -2.28058020622931   -0.25338600062834    3.51321055527628
O           3.06369036683128   -0.76854265945624   -2.61691859388168
H           2.35948598150394   -1.45790730887413   -2.51202831239624
H           2.62187379723809    0.28492262173629   -1.48415957026489
H           3.88382650238885   -1.18254732712772   -2.33987618334777
N          -1.38360609297413    2.04788863569762    1.39724746709417
H          -0.38785361765967    1.63820673177460    1.34707003966571
H          -1.71277413840210    2.09097019573973    0.40106695330499
H          -1.95445363279751    1.35192922446339    1.93974229437185
H          -1.37873858859183    2.96365921915430    1.83142238132474
