    26
        -50.44824558  Gyration_radius:  2.6384701875 Dipole_moment: 4.527
 S           0.09204358601167    1.40668011813657   -1.00877110524243
O          -0.73382753499287    1.92287433382705    0.03615287748328
O          -0.32875432667269    0.15083179400389   -1.57478658080284
O           1.55335979892664    1.24403034961622   -0.50054763419407
O           0.26810320909812    2.44237869343836   -2.11810536415213
H           0.74358678181666    1.91818353097361   -2.87129644175686
H           1.58040042993005    0.70827385370183    0.35447051697902
O           1.54476287015952   -0.03378450416104    1.72490805421152
H           2.27410457372456    0.24974706384398    2.27965714665084
O          -2.29702202415540   -1.07108020549163    2.20799128066414
H          -2.14307984646558   -1.33136202125819    1.26235917130074
H          -3.23428792880130   -0.89068388561067    2.28371780361087
O           0.33896991689492   -2.57164461953747    1.47402005603550
H           0.88887347266989   -1.77562665281251    1.50374409786992
H          -0.32624369905009   -2.45766958960350    2.15987635501147
O          -1.66789966659946   -1.82307241784199   -0.24792476070841
H          -1.29381849134816   -1.10906699096673   -0.78900937752381
H          -0.90240416791898   -2.32058783620753    0.09125498598709
O          -0.62685539482499    0.98876682975237    2.56888726777263
H           0.69734002174495    0.36221702390517    2.13998528750697
H          -0.80872009241399    1.50840425913932    1.76692448454284
H          -1.27667452108126    0.24945769082880    2.54932127217020
N           1.34801874567121    0.78761275296310   -3.73152008519906
H           0.83074399288590    0.05882202042390   -3.24674958751059
H           2.33839898057426    0.63745897914832   -3.59400568292286
H           1.14088131732386    0.74883941925444   -4.72055401167413
