    26
        -50.45088140  Gyration_radius:  2.63523577545 Dipole_moment: 7.367
 S          -0.80366971521905   -0.57673217792667    0.20978952468249
O          -1.59616530872829   -0.24456437471472   -0.93288729673798
O          -0.17763680398250    0.55632783874030    0.85100274624641
O           0.28500827984763   -1.60276862207317   -0.16949769700317
O          -1.65218925684316   -1.34217386491532    1.21540244107175
H          -1.07040118416227   -1.60271534493376    2.01531525196551
H           0.83186810443008   -1.24377871736417   -0.94113824401443
O           1.63100332063722   -0.53358148116200   -2.05463840098258
H           2.57615717571115   -0.68249800257774   -1.98846583178407
O          -1.21914817896019    2.03051503870485   -2.60745721707100
H          -1.73378412823859    1.56661663329780   -1.93607216429618
H          -1.06953757157560    1.35408200335341   -3.29258389324907
O          -0.27084640415107   -1.87547687362469    3.27145146239222
H           0.18371383158263   -0.99725462494384    3.45707067964128
H          -0.88157958054703   -2.03431309781547    3.99478246080367
O          -0.77307782891305   -0.49321546045827   -3.60730138362405
H           0.15323734277292   -0.65148661650116   -3.39348362113193
H          -1.25547835553333   -0.63826872653894   -2.78172572875658
O           1.03869400493806    1.80609296714333   -1.22272335706395
H           0.27495900209448    2.07884266835055   -1.78837701270510
H           0.64212913914179    1.54501053204994   -0.37476291873151
H           1.47112425674820    0.43942784485625   -1.80237055543028
N           0.77385491780872    0.53261054701186    3.54003595730723
H           0.35860409985713    1.22513026650091    4.15058410164448
H           0.50357573956983    0.75920712205287    2.58247523197649
H           1.77958509171418    0.62496451349615    3.60557545484970
