    26
        -50.45088133  Gyration_radius:  2.63466001311 Dipole_moment: 7.370
 S           0.47764903546745    0.03654767837928    0.89178456322049
O          -0.72216319520012   -0.61226395890109    0.41597644129730
O           0.33102086213031    1.43605593704238    1.14490317292429
O           1.61645212137098   -0.21150728799590   -0.11987108273145
O           0.98442273443351   -0.65970756945392    2.14696136233362
H           1.11912788540298   -1.65383028700644    1.94677572384424
H           1.44555437114360    0.32866115813055   -0.95779038892055
O           1.01054209354861    1.13410648446157   -2.20111259818173
H           1.19723062423626    0.67910217341700   -3.02449495742744
O           1.18954342779116   -3.14855259348509    1.71959910729212
H           0.31985761005840   -3.35847920671574    1.25912543471938
H           1.16946209202605   -3.58895908891558    2.57228061505905
O          -1.55216104485012    3.15841327385388   -0.12123359733625
H          -1.25419098925331    2.67952419423299    0.66160758319676
H          -0.74990939086934    3.61564352743615   -0.43205966531662
O           1.13821271527178    3.49520105377401   -0.58894602709191
H           1.09418836977841    2.91613763073764    0.18435783277565
H           1.30273862928242    2.91044286175398   -1.33717156599237
O          -1.47568185255534    0.98003607546118   -1.64247527487747
H          -1.40660845403105    0.32781738401625   -0.92527186317145
H          -1.67590340333018    1.83609103530015   -1.19006213220614
H          -0.00032504890406    1.12070218628124   -2.08342032972110
N          -1.16030350670689   -3.42702113004772    0.55238803238370
H          -1.21387337986370   -2.41744213758338    0.41371961716855
H          -1.98044452705014   -3.71140155528332    1.07320529280177
H          -1.20443778935014   -3.86531781890893   -0.35877530604782
