    26
        -50.47250307  Gyration_radius:  2.4873690402 Dipole_moment: 2.883
 S           1.10985139087621    1.87899411484471   -0.61782873625576
O          -0.30041446496103    1.63468938825572   -0.38311359460749
O           1.64328801548852    1.02486701957430   -1.67205250497948
O           1.91475544215845    1.82281359943073    0.58738247115440
O           1.21615663461042    3.36739647528803   -1.14991476797242
H           2.15798166428277    3.49857706450316   -1.13958138623841
H           1.74882519860175    0.45032947636972    1.37956953783404
O           1.58462218019718   -0.38367274439619    1.89316606174485
H           2.36815254828194   -0.52318842612970    2.42695693793833
O          -0.97533460101283    0.70166731720812    2.02757588931613
H          -0.78197376735466    1.20419669332355    1.21070953645552
H          -0.11849651246333    0.33817245112421    2.29543279434668
O          -2.20264581155310   -1.33865488059172    0.97174690512492
H          -2.94525693679547   -1.61302755801942    1.51003761475097
H          -1.79916999290375   -0.54468372317111    1.42934345223744
O          -2.13114831925004   -0.03488074614731   -1.45531923345409
H          -2.36120571151505   -0.52900927817835   -0.64720655670861
H          -1.66030723732979    0.75737727581420   -1.13681169682016
O           0.31667041193609   -2.30501769820374    0.41942334480733
H           0.34447754294558   -1.70249672012817   -1.05824158881323
H           0.83863550110655   -1.69513450753562    0.97435416418362
H          -0.61179627118019   -2.14922564608065    0.67012549304270
N           0.20589984480575   -1.13273683716570   -1.94413282551836
H           0.83719328245726   -0.28116973898248   -1.89477756434900
H          -0.79403437896800   -0.76773768960239   -1.92012930058223
H           0.39527432741248   -1.67844467141373   -2.77671443666785
