    26
        -50.45088132  Gyration_radius:  2.63485902278 Dipole_moment: 7.366
 S           0.59094878527713    0.81894565040109    0.06317703578074
O           0.07730851030557    1.34729051984353    1.28841908381287
O          -0.42194021366531    0.37530680303576   -0.86629694353961
O           1.55949294039089   -0.34921108522203    0.34450056959356
O           1.49168586933522    1.85110859138815   -0.60061151970077
H           1.88115267609749    1.45289406041530   -1.45850690128879
H           1.09324041556357   -1.04356627491647    0.91330530595661
O           0.22970130400730   -2.05188375397531    1.70173674769159
H           0.39982631399863   -2.96267034389394    1.45401608184937
O          -0.08227078170374   -0.04882789437922    3.72225633281927
H           0.11903989807530   -0.90827706636357    3.33540149289102
H           0.18340122779549    0.60069236318641    3.05684038007268
O           2.35608832774261    0.94153590250172   -2.80188916979701
H           2.61625180060940    1.69224097000360   -3.34058729051354
H           1.52363842771853    0.55648909687130   -3.21556077832906
O          -2.42467824993738    0.66178325234976    2.46545501532849
H          -1.86648904492294    1.29905051316920    2.00365230359398
H          -1.86292458748387    0.35041676858385    3.19807127726000
O          -1.96036921965245   -1.24206404870926    0.66935453684706
H          -0.69428727705943   -1.82017961708833    1.34367798699605
H          -2.32763761803737   -0.61565151050114    1.34037432533618
H          -1.57643824264877   -0.67431717569588   -0.01970640505393
N           0.03340448754803    0.03037557880231   -3.66052488358161
H          -0.03365801790212   -0.93517695854289   -3.95637394467097
H          -0.56125735277382    0.58215122896355   -4.26610079142726
H          -0.34323038868010    0.09154443975807   -2.71407983792041
