    26
        -50.45088139  Gyration_radius:  2.63503845245 Dipole_moment: 7.370
 S           0.34445812215138    0.95052969159800   -0.00592949593431
O          -0.47348152915103    1.47021651736283    1.04531534975440
O          -0.36189017739571    0.12609296306299   -0.95894906471874
O           1.52368350465833    0.14383631623273    0.57775333956203
O           1.04306594285399    2.09651120939767   -0.72418388587976
H           1.65069490088242    1.71424576924999   -1.45289988416086
H           1.16752635699540   -0.57352038600875    1.19561502282038
O           0.47892870018371   -1.67098595354679    2.03518906108475
H           0.91307025522132   -2.52317033534643    1.96337214338623
O           2.44483381057174    1.18551544044785   -2.62796622654963
H           2.58642186243413    1.90334555929786   -3.24935883259078
H           1.81313394535840    0.53651343391241   -3.06629047318782
O          -0.64657589505074    0.41219357418982    3.64319981635894
H          -0.17407759949625   -0.40059321947552    3.43117088436150
H          -0.45596560656620    1.01754143575627    2.91349993344912
O          -2.86759532997440    0.27766681391759    2.02435565456776
H          -2.42589867132670    0.97892295436780    1.53030202906459
H          -2.36644306270935    0.23147032961531    2.85857987362548
O          -1.65681495745470   -1.63938918181099    0.63698355000444
H          -2.27216232905352   -1.05734376586761    1.14703756753207
H          -1.32797924499951   -1.08209884372880   -0.08815208882429
H          -0.40620473253599   -1.75228033189022    1.53945498781651
N           0.59436003719465   -0.43213530988974   -3.58758372913093
H           0.07287777240579   -0.35791297219386   -2.71357079946632
H           0.82258346097663   -1.40818693589788   -3.72743856186949
H          -0.02054955619981   -0.14698477275231   -4.33950618100934
