    26
        -50.45088138  Gyration_radius:  2.63515776822 Dipole_moment: 7.364
 S          -0.91139652307028   -0.29476262050810    0.32435397214926
O          -0.58821760657990   -1.65315182089298    0.63185749152826
O          -0.39054322527878    0.17070449856888   -0.94010811328612
O          -0.41770339344359    0.64341599085548    1.44594513775916
O          -2.42134974129004   -0.10621521409681    0.36760939704233
H          -2.64171547561837    0.87450665770284    0.17814174530237
H           0.57109340921559    0.49419757635916    1.59826111691255
O           2.08993860891742    0.22351441151721    1.65777221088455
H           2.60584782979500    1.01983831036838    1.79756197811269
O          -3.00253533653575    2.28407791373116   -0.23962307641982
H          -2.42931460568518    2.44370547274414   -1.05092369911034
H          -3.91588905456158    2.29138826027463   -0.53492576920772
O           1.47690162026591   -2.48604818557775    2.34682967161340
H           0.59121564746763   -2.32913753263223    1.99161911995907
H           1.88479369782856   -1.61518462842569    2.41046357857240
O           1.68513532913060   -3.07223472085269   -0.33346507080330
H           0.73240945800237   -2.91990197509784   -0.33797428588200
H           1.90522669084144   -3.13290073638800    0.61366587546570
O           2.22749312156778   -0.50928416637242   -0.78392788971024
H           2.26115473012247   -0.06981083320404    0.69842760973259
H           2.19093908913742   -1.49648738015642   -0.74304210119450
H           1.33382446653686   -0.23638445839753   -1.05113196384207
N          -1.41654596506094    2.43228908398601   -2.34335323986550
H          -0.91007579260434    1.60653817461368   -2.02238873491063
H          -0.75397456500615    3.19493801874063   -2.40393691889234
H          -1.75671242408494    2.24238991310072   -3.27770801192096
