    26
        -50.46577291  Gyration_radius:  2.41263193513 Dipole_moment: 4.007
 S           1.06457570864211    0.15449927065847   -1.06397769678877
O           2.26653002644292    0.63413767940301   -0.43124672940032
O          -0.05156138664591    1.09096869278210   -0.92781400196807
O           0.61573985738218   -1.16198636163766   -0.30431581809728
O           1.22456110769621   -0.29755816554067   -2.43967232507399
H           0.12815853224160   -1.24895797835697   -2.59698528409030
H           0.73440593447872   -0.96948569390812    0.66703484775682
O           0.82076754170365   -0.47725548320298    2.17917817497116
H           1.71904232933576   -0.16607694905793    2.32379092939221
O           2.18389699738187    2.12984929555772    1.74405866452359
H           2.86803678845120    2.79703521034007    1.68289593339707
H           2.24917678731648    1.60646627649127    0.91341495601125
O          -2.13915231696122   -0.63073975495842    1.43654691450693
H          -1.92886134831127    0.28891703940962    1.64764863036565
H          -1.39154003175761   -1.14664712918646    1.75114863302517
O          -2.25015951478412   -0.28789884325321   -1.24134487257418
H          -1.53323186544189    0.38774734105282   -1.20306641485629
H          -2.38863803614872   -0.53194930403268   -0.30128238438992
O          -0.51995613569693    1.72457898164177    1.58627745253123
H           0.28061756972804    0.35195946881039    2.11389826759439
H           0.23556270114104    2.27621660292791    1.83737163985664
H          -0.41568961090952    1.60065706020900    0.61485532895918
N          -0.74118196394225   -1.91045191371189   -2.54138786097494
H          -1.48714902217189   -1.31041241003253   -2.00444089619808
H          -0.48170258987099   -2.71568875972830   -1.97933102382252
H          -1.06224802933153   -2.18792414265346   -3.46325505462122
