    26
        -50.46622922  Gyration_radius:  2.43307375359 Dipole_moment: 3.930
 S           0.05752547280846    1.86708872669119   -0.49577547204348
O          -1.01523046139935    1.28652899428661   -1.30417961180298
O           1.33743901533574    1.24740063720967   -0.76448492722570
O          -0.29430345459256    1.92775529244804    0.90787596743281
O           0.20061602329467    3.36694783239322   -0.98572834295281
H          -0.60999121038008    3.77624227810613   -0.70006693970822
H           0.18322132738675    0.70901377196169    1.91839528083370
O           0.43875915139184   -0.04318597129614    2.50053438957398
H           0.54662739623888    0.31926781775771    3.38090555288982
O          -1.21329229440972   -1.86601259863078    1.14930938859508
H          -0.64483668125372   -1.41252977722757    1.78881781171664
H          -1.88437885689564   -1.20198032284256    0.89632008864769
O          -2.65212081781332    0.37463933194884    0.60314133625109
H          -2.18699543135382    0.69054874508484   -0.19183658657249
H          -2.32314489528412    0.93702975929180    1.31009799415396
O           0.59527850271222   -2.52256361108738   -0.64259307660830
H           0.43180252323185   -1.53635203492639   -1.66202114844576
H          -0.16791119408900   -2.42408254123779   -0.01574224885454
O           2.27950065183630   -0.91901259697630    0.63884570459904
H           1.35678254284599   -2.12938899562570   -0.15005620503999
H           2.15044608832034   -0.09446516501926    0.14303025713901
H           1.79535009130540   -0.77727174704494    1.46772371045531
N           0.40646333813922   -0.63570736799262   -2.33609087784362
H           1.16756700252239   -0.01183398733444   -2.01651922602828
H          -0.43242269210042   -0.05464640463128   -2.12081686114080
H           0.47724887220244   -0.87343008530721   -3.31908596802506
