    26
        -50.46626419  Gyration_radius:  2.52202213021 Dipole_moment: 6.329
 S          -0.83990967912573    0.55426569375666   -0.00467213452488
O          -1.85259515045502    0.99216531325094   -1.06800968216160
O          -0.92580184925129   -0.89844397617638    0.16590864071131
O           0.49960061286779    0.93978507155557   -0.45005775467166
O          -1.19648920887378    1.23965658419443    1.23413475349779
O           0.17643181106745   -2.00357280427614   -1.95734225231996
H          -0.22034890781944   -2.87364316915470   -2.02625869085763
H          -0.14679311141733   -1.62132929880520   -1.11272305333029
O           2.36206687303458    0.20616037308605    1.22173778803605
H           1.70554417779203    0.40810501270194    0.50991537322566
H           3.12890293846176    0.74931414454420    1.03272614919772
O          -0.87591588326417   -2.06790032746492    2.50866686916459
H          -0.88577349909236   -1.73983221645481    1.57603788351016
H          -1.79651627069274   -2.18408174522148    2.75022274036434
O           0.89038440540872    2.02945939395587   -2.84913721426737
H           0.45366795993441    2.88082735766724   -2.78887011256102
H           0.87034738185417    1.64996627939900   -1.94610036606119
O          -0.92545463950589    0.07612746406657   -3.23089169090619
H          -0.46711898974353   -0.74028570157770   -2.93310366221405
H          -1.54354369223071    0.60543638434757   -1.97180786833353
H          -0.21671272926286    0.73909272919410   -3.36541892134388
N           0.37644555096086    0.21920252945313    2.98153159160402
H           0.45784250005207    0.64805746101632    3.89659394001406
H           1.29197018040740    0.19367402792503    2.47090180306324
H          -0.01755645982666   -0.75452073861483    3.02488805209482
H          -0.30267429127956    0.75231417763668    2.33112780906629
