    26
        -50.47250230  Gyration_radius:  2.48707173662 Dipole_moment: 2.874
 S          -1.70573073176814    0.52948766859212    1.39778055293554
O          -0.54099165817016   -0.31425093814875    1.58564073673364
O          -2.53479807336999    0.07405774731035    0.28866146499497
O          -1.38716964959519    1.94084020108351    1.29579244445142
O          -2.58111534119531    0.37063124235239    2.70870956366679
H          -3.21702690321725    1.06753909849660    2.58903549286348
H          -0.33681877466031    2.24239064924375    0.13551789499450
O           0.36488340149570    2.40466466065003   -0.54811415799325
H           0.24952767846899    3.31208129639050   -0.83377640210050
O           0.41250033089798   -2.52233882334760    0.36042017372585
H           0.09130334415882   -1.88633923969827    1.02616701708674
H           1.26736126695223   -2.16062879050467    0.06319906278750
O           2.51829987735830   -0.98352891584627   -0.53312462794116
H           2.33709650882095   -0.29636522713440    0.17198286575069
H           3.46153362656761   -1.14625307408054   -0.51700702912892
O           1.84348620357556    0.83042717574289    1.21050897799074
H           1.56776517855251    1.58115703291793    0.66448459068224
H           1.00481301303268    0.43670787401721    1.52476062860381
O           0.75140130810725    0.28101654247612   -2.22506477690637
H           0.60997297667782    1.09949380425157   -1.71265444722816
H           1.49350096276807   -0.17204131454108   -1.78549701370709
H          -0.46345645436992   -0.68717069562634   -1.86033770279649
N          -1.15103197363736   -1.35247178087121   -1.39835639108654
H          -1.77988031526630   -0.78713929108527   -0.75721036414298
H          -0.58009900132365   -1.99529179553683   -0.77041429578009
H          -1.69532679043278   -1.86667510723480   -2.08110424849384
