    26
        -50.46731556  Gyration_radius:  2.58034493231 Dipole_moment: 5.054
 S           0.23894519529470    1.03983063395639    0.59592952977687
O          -0.74919907628829    1.56078519615807   -0.33785314267980
O           0.11193266862879   -0.42570560773584    0.71884788890874
O           1.59532127412723    1.41441674205429    0.25024338916509
O          -0.12978426451041    1.64847078293214    1.97342473784551
O           1.10923470496332   -0.49040700793026   -1.73375424769111
H           0.73849347345827   -0.65723153557858   -0.84681149021204
H           1.59786302860107    0.33152930942421   -1.61631412075579
O           2.79031532158840   -0.50764422483894    1.59322977943310
H           2.54694568165970    0.23701595524158    1.00184212276351
H           2.10279579967972   -1.16283250000335    1.43838712082564
O          -2.06723117933249   -1.84801782460970    0.49834484015980
H          -1.75564733930843   -2.74119510915734    0.34107343219673
H          -1.26380569667916   -1.31845614164590    0.72645698156247
O          -0.89915118859599   -0.62778332825330   -3.47192092940604
H          -0.09803768752657   -0.66700428924936   -2.89540066133411
H          -0.71077431952913    0.03800448743227   -4.13540041168028
O           1.80250504706639    0.93840885448494    3.56459824494838
H           0.55775999869080    1.36945605929864    2.64079994784621
H           2.27056404673101    0.30824355886359    2.95966164653107
H           2.38363797456589    1.69605236410080    3.65998223961082
N          -2.46937228583866   -0.03121846177744   -1.40022893872067
H          -2.00474838621551   -0.30898806950868   -2.30106262369526
H          -3.39291850739098    0.35921603073856   -1.54775573709355
H          -2.49205745879540   -0.84463085170456   -0.73661843411428
H          -1.81358682508593    0.68968497730055   -0.93970114420514
