    26
        -50.45202115  Gyration_radius:  2.4752349573 Dipole_moment: 1.183
 S           1.20036307703951    0.30993031666985   -0.91065012032615
O           0.74220743045368   -0.78803459160550   -0.08181852764403
O           2.10245216718453    1.19602882124367   -0.25023404270780
O          -0.02961773861066    1.07119818134448   -1.44132213397182
O           1.82241050405699   -0.23532844908594   -2.18764262867697
H           1.07438393504229   -0.68492226824747   -2.71993061556219
H          -0.51893618693549    1.55977905843824   -0.69455933042053
O          -1.16041944869674    2.28104120191416    0.48805204995840
H          -1.31484690322747    3.20355524150259    0.27557163412006
O          -0.04878272210548   -1.43963156210724   -3.40042365475769
H          -0.55358184133750   -1.85982546231483   -2.65144863349832
H           0.30074097676210   -2.15970162187029   -3.93071561216926
O          -1.04635970005722   -2.48114473007911   -1.21889486838170
H          -1.82272179578067   -2.07035805791534   -0.81729249591799
H          -0.29864554052466   -2.11951324606493   -0.71273474552958
O          -1.92464748112760   -0.48503102247909    0.66758930283442
H          -0.96940147557480   -0.55795940908520    0.53024031598503
H          -2.10605291997265    0.45906915560614    0.69547874395955
O           0.88094337692182    2.10987364451178    2.00730496934889
H           0.76068722036719    1.25368792012428    2.48953732770825
H           1.53146788469892    1.91775659864064    1.31141551286905
H          -0.40433510636450    2.26788139965600    1.17140032110410
N           0.48776010248414   -0.41704495383943    2.85832334396370
H          -0.49648913414385   -0.64283511383792    2.94297905567676
H           0.98232366101504   -0.88705267967125    3.60541435330956
H           0.80909765843517   -0.80141836144839    1.97436049873972
