    26
        -50.45088135  Gyration_radius:  2.63475133909 Dipole_moment: 7.366
 S           0.57066587446648   -0.73318489879735    0.40164107230021
O          -0.83449387940743   -0.40271312486326    0.45896739333794
O           1.40349800158500    0.08498386566042    1.22701169958362
O           1.04063017779850   -0.67139656716091   -1.06707859612955
O           0.77687717514981   -2.19822307462904    0.75992710782183
H           0.20347532677359   -2.77775134883582    0.14209878474331
H           1.07513067012343    0.29345053810536   -1.36880405280676
O           0.99421554377730    1.79591134638056   -1.71465776417551
H           0.66694161341032    1.95746813044027   -2.60154918138470
O          -0.74072035281667   -3.64749166886793   -0.65999385571445
H          -0.85001994471016   -4.48368450642439   -0.20139479112716
H          -1.61918885962057   -3.16078477960079   -0.59871937973639
O           2.93367265019741    2.26739174471531    0.33677438957528
H           2.52397835699222    2.30283927523804   -0.53487277513401
H           2.70085243444638    1.39969246901249    0.69469602019956
O           0.82220154357120    2.75568645624880    2.03191229150825
H           1.64098941672139    2.95688094238247    1.54370047797397
H           0.90902128765575    1.81952070710315    2.24840645766030
O          -0.83002329506513    2.26856831659662    0.00739340136973
H           0.26002589330766    2.09158719688806   -1.07475535523436
H          -1.03699796606321    1.34610331811756    0.23276487746455
H          -0.33869795596193    2.61829687980341    0.79088428205192
N          -2.91451600768740   -2.19044511876308   -0.32269628703789
H          -3.42252732397644   -1.87395221252481   -1.13882526198900
H          -2.34411097311645   -1.41179531192282    0.00847847610799
H          -3.59087940755634   -2.40695859427806    0.39869056876386
