    26
        -50.47250309  Gyration_radius:  2.48738211522 Dipole_moment: 2.884
 S           2.22532578953978    0.34206454779822   -0.27539225706767
O           1.13019550371176    1.27307887615143   -0.08187901971114
O           2.04133385232562   -0.47606002655143   -1.46793771751898
O           2.51445146186320   -0.46169857143742    0.89677990064290
O           3.51452858058439    1.22601741823290   -0.53273430701306
H           4.19822812530248    0.56573938305067   -0.50113373113714
H           1.24057696089062   -1.25548410167287    1.43148402942743
O           0.42300899639068   -1.69242597344653    1.78780007844255
H           0.72608945898730   -2.45419174153018    2.28396504686184
O          -0.34353084540864    0.96198397401382    2.12487948533243
H           0.27788392414883    1.20916579115050    1.41084997008261
H          -0.13098244992800    0.03740676240414    2.31993388091748
O          -1.14439613622595    1.81811835790590   -1.42949897794777
H          -0.28477948708233    1.89344124601420   -0.97535163715384
H          -1.78128642125778    1.60630498019435   -0.72272805241504
O          -2.53371722294740    0.80355348925268    0.72419932110935
H          -3.28093511520900    1.15586359114722    1.20795244117152
H          -1.73384557810915    0.91823797709936    1.31551895374563
O          -1.64284790055422   -1.69895056040980   -0.00193866042127
H          -0.92507549290777   -1.80033402089355    0.65144775736651
H          -2.13219139234476   -0.90354699790527    0.27583539841022
H          -0.95558147423453   -1.18604699356360   -1.34800133163808
N          -0.47872200184384   -0.62944780406622   -2.11703351626889
H          -0.81913710211482    0.37503107818220   -2.02394997393850
H          -0.66816997503403   -1.01542589397556   -3.03463115356315
H           0.56357596175060   -0.61239478702693   -1.91843590777357
