    26
        -50.45202104  Gyration_radius:  2.4752995395 Dipole_moment: 1.182
 S          -0.96470261370363    0.20838691840541    1.18053293170815
O          -2.12319949044445   -0.60832858146498    1.01939774963226
O          -0.57435001653215    0.91927051312928   -0.02143363644896
O           0.23444515193676   -0.62705266713464    1.66835506688425
O          -1.15953323445048    1.19647673563629    2.32115500448798
H          -0.24461340201386    1.60245358089694    2.52843950011116
H           0.44380830051632   -1.39067856481043    1.02885526226635
O           0.65470073713061   -2.52207383180056    0.02615833271125
H           0.72073656861070   -3.36494757114971    0.47921764003703
O           1.11105243301180    2.25522523611641    2.70436306034489
H           1.46660916223388    2.34113915237856    1.77784674538131
H           1.01464146162011    3.14853888085182    3.04281516100632
O           1.66849098849931    2.43492969741668    0.15541459167339
H           2.25117666847943    1.77587512185785   -0.24314980958972
H           0.77334056618024    2.11807074251383   -0.05510397601325
O           1.74533413422403   -0.13552810638015   -1.14956376415348
H           1.77452291957038   -1.06865848750435   -0.91845617691621
H           0.87641270094525    0.17352412542255   -0.85615608785224
O          -1.65500901762730   -2.33148454391878   -1.03864789272276
H          -2.07466082195368   -1.82573432033654   -0.32279060590932
H          -1.53613698852540   -1.68201883348312   -1.77624266374056
H          -0.23835514224063   -2.53083955137985   -0.46490910142298
N          -1.12399838663264   -0.26976187639135   -2.69161330705750
H          -1.15208523226374    0.39667164041696   -1.92517830990486
H          -1.71756415092621    0.07732491587978   -3.43376807608661
H          -0.17106328560515   -0.29078030517226   -3.03553762844938
