    26
        -50.46622916  Gyration_radius:  2.43307004359 Dipole_moment: 3.929
 S           1.33748053871198    0.87957702833380    1.08275353856675
O           2.07073261634076    0.31407048229133   -0.05037063988402
O           0.66718060090137   -0.14019353795403    1.86068341256671
O           0.48683438620479    1.98112601907585    0.68192662251875
O           2.43800565496233    1.49180588722626    2.04403088677764
H           2.78616822295582    2.22709247454264    1.54981426385368
H          -1.10669649199665    1.69502436044416    0.34438758327833
O          -2.04310748513380    1.50372253601132    0.10680465652468
H          -2.54114681426386    2.29816558075517    0.30389702410444
O          -1.12490353699362   -2.29613762477566   -0.76959777637274
H           0.21885711613185   -2.27538612428537   -0.28773960147600
H          -1.21325577886504   -1.55299681722156   -1.42154201929980
O           0.86863998881818    1.54426644248019   -2.09750180988592
H           1.42653288145289    1.06200331966634   -1.46166396648683
H           0.51244650394567    2.27964679218859   -1.59088665314720
O          -1.33302316784941   -0.05001420507811   -2.12033690035196
H          -0.51127922034249    0.44351206857497   -2.31113305998441
H          -1.79801529222701    0.48752055454218   -1.46261314936686
O          -1.91466692372436   -0.94499555084358    1.37523487762609
H          -1.05607597200580   -0.69028294971321    1.74984219237170
H          -2.24543358174351   -0.13170156858725    0.96218869747500
H          -1.59544392108624   -1.96241920696584    0.03309966807079
N           1.20543004370164   -2.12566253670023    0.23243515812808
H           1.70958933779671   -1.31571721059325   -0.18880826463383
H           1.77026081786960   -2.96701146119517    0.26213370462216
H           0.98488947643881   -1.75501475221921    1.17296157440776
