    26
        -50.46622928  Gyration_radius:  2.43317940709 Dipole_moment: 3.933
 S           1.55137782085990   -1.15042700421436    0.08053296648727
O           2.02126926604189    0.16230795657804    0.52479813153457
O           1.03517486071864   -1.11482374982213   -1.27108082803226
O           0.66003440328542   -1.76136603793965    1.04478112175263
O           2.84072811189840   -2.06895554698217    0.01820540836751
H           3.09901914066531   -2.15808485179773    0.93012175338269
H          -0.97447863128504   -1.58795318530705    0.86298447075406
O          -1.94370954376601   -1.44265501242832    0.76576605855661
H          -2.37269715659621   -2.20949629077834    1.14779248682223
O           0.44780791160835    0.57339229852713    2.64721415472691
H           1.11475633009722    0.54451131392574    1.93839462546698
H           0.21963473665066   -0.34850288522506    2.79663943271285
O          -1.30948906475802    1.93306098366626   -1.29693418669656
H          -1.51467032304175    1.87235374697038   -0.32774866613017
H           0.10537700544758    1.79826486819545   -1.43615959950719
O          -1.74370317551276    1.31948013126813    1.22260215259739
H          -2.05143480636690    0.40793120832100    1.11257024690774
H          -0.96889030854764    1.25219478648623    1.81457512232596
O          -1.60874784145977   -0.64557902349875   -1.85607936469130
H          -1.99942882740514   -0.96353841830545   -1.02673252881334
H          -1.59662529778016    1.05718590785451   -1.65378812546374
H          -0.68604453594889   -0.94433819452732   -1.81496764037566
N           1.18096379971964    1.48927021042109   -1.55218793843831
H           1.72166726406166    2.13732960813175   -2.11385272174854
H           1.16790378995419    0.53108464543271   -1.94275627106733
H           1.60420510146071    1.31735252504898   -0.61469025143588
