    26
        -50.46622930  Gyration_radius:  2.43316821304 Dipole_moment: 3.932
 S          -1.43488990273211    1.09148443555466    0.69742019614514
O          -0.36957469239015    1.16957059326992    1.69763822004934
O          -1.89932305330354   -0.26522522334699    0.50190280552128
O          -1.08229609231887    1.78448009114727   -0.52445554334193
O          -2.66396623658576    1.87547508385590    1.31770987194956
H          -2.36788556746470    2.77997335909855    1.33830308518077
H          -0.42371092960050    0.93247716249788   -1.77949199321483
O           0.00485103797796    0.42060786799497   -2.50356912376011
H          -0.23368504608767    0.85724423528786   -3.32240954341258
O           1.62031472900271    2.20299444385036    0.24123637150412
H           1.06851595528981    2.57814082230724   -0.45090214468610
H           0.98619441283768    1.87312067453492    0.90244491730878
O           2.30056053831450   -0.12608518736808   -0.98396950415630
H           2.25708808869433    0.70019901627754   -0.46369943309570
H           1.65493162784421   -0.00514911560755   -1.69548202230803
O           1.33157206901219   -2.31265769192964    0.10834856465218
H           1.85448844143548   -1.55053381181507   -0.25333073086574
H           0.62308348925634   -1.83163506874703    1.25104711138974
O          -0.83616649105928   -1.95847364095752   -1.38371404605327
H          -0.51366602820738   -1.29235221630602   -2.01128115216400
H           0.58025105090955   -2.40544746681896   -0.52721162351766
H          -1.39466352656278   -1.45617499529712   -0.76882205562125
N          -0.08069725409659   -1.39886433801917    2.01483301042768
H           0.10326034803159   -0.37878307325972    2.12939875627768
H          -0.06844586003151   -1.90101603635367    2.89544644980136
H          -1.01614109816773   -1.38336991984863    1.57260955598931
