    26
        -50.45202106  Gyration_radius:  2.47534490476 Dipole_moment: 1.183
 S           1.21777468321147   -0.50561189290023   -0.79365242489330
O          -0.20322235113136   -0.32140145982436   -1.01543662891888
O           1.57146496140350   -1.82049038188050   -0.36829262284804
O           1.69705960491524    0.54926140227532    0.22198537004101
O           1.98731718654713   -0.12289676596262   -2.04920884547950
H           1.85972696543468    0.88178554377315   -2.18742530610170
H           1.31401393314568    0.37804532385955    1.14915432514388
O           0.71531935257846    0.01670907991178    2.50620856540919
H           1.39552275243168    0.00860805775742    3.18244711696690
O          -1.37092723718549    1.25591413589203    0.96298160025952
H          -1.02424321751314    0.60768031120170    0.33349012671595
H          -0.85866154988844    1.12869664900844    1.76695219058817
O           1.53279527698480    2.34491975217849   -2.40542006161613
H           1.57324182526355    2.56479411255548   -3.33914313022861
H           0.57701866332612    2.42774173480915   -2.13712557133723
O          -0.99206231245635    2.16883800544163   -1.74642961746475
H          -0.90032949007957    1.20259590479100   -1.68257206505858
H          -1.26286011471388    2.43849574711264   -0.85948462206881
O           0.13978710193749   -2.38779155235626    1.87972416623045
H           0.44644191676670   -0.95537292755109    2.35980888711403
H          -0.77743271577235   -2.33590472585273    1.51097689495429
H           0.72042236193273   -2.45081986148493    1.10306253371130
N          -2.16784351230477   -1.88141686454599    0.58237271482741
H          -1.67270482831257   -1.52974805390539   -0.23219986241285
H          -2.67008862756117   -1.10032749078683    0.98803924861126
H          -2.84753061896408   -2.56230377352332    0.26918701784257
