    26
        -50.45202108  Gyration_radius:  2.47531057362 Dipole_moment: 1.183
 S          -1.31207833393495    0.13534600438392    0.79226584351861
O          -0.90321718084908   -0.26208817285881   -0.54089194158989
O          -1.68302528209165    1.50873980418325    0.89844676041073
O          -0.17680560703482   -0.20600950841310    1.77640056120238
O          -2.44150734443604   -0.76397266764144    1.27253004889154
H          -2.05602523397813   -1.70540196603288    1.37294589077328
H           0.64137195877582    0.37953283554143    1.62293337095885
O           1.80231756207928    1.32786607837007    1.33472867371120
H           2.10914433155414    1.73991174125505    2.14474534385657
O          -0.09565705023097   -2.83505503225109   -0.83298554567063
H           0.84815592869466   -2.63710892924273   -0.78045754105888
H          -0.51192549717399   -1.96792994439965   -0.97746922655358
O           1.84348112916522   -0.70455518345548   -0.69895320280489
H           0.91235755795833   -0.44080561492966   -0.70911336568371
H           2.26051129764941   -0.13958843837398   -0.04177226113236
O          -1.45805743499806   -3.09704714035862    1.38389664822300
H          -2.13714798062418   -3.75800802288783    1.22952967132547
H          -0.85953077546676   -3.11589447666896    0.58780209997869
O           0.41150081789746    3.01453377270832    0.02101287443347
H          -0.45966997650735    2.72356716215294    0.33843443361529
H           1.34031578378971    2.06111175328699    0.79839456256567
H           0.46082015161326    2.70063183114384   -0.91655205488386
N           0.40177084617230    1.71447667829419   -2.34006219237544
H           0.08045342710090    2.07727738223181   -3.22816942510686
H          -0.28248839372380    1.04168543511309   -2.00614376940734
H           1.26493524864072    1.20878459901167   -2.50149625751135
