    26
        -50.45688847  Gyration_radius:  2.45324878173 Dipole_moment: 5.088
 S           1.68460954618478    0.68414563727929   -0.35279319485221
O           1.91858824446407    1.20119669937898    0.96613116486552
O           0.49662340059198    1.24174090178686   -1.00187072810478
O           1.66221634178173   -0.77040945437145   -0.41905381667027
O           2.90362130843582    1.15795631595281   -1.24844037647072
H           2.68310986850392    0.86057336220000   -2.12563810682846
H           0.69477320625758   -0.81705315343359    0.92517262964005
O           0.09256917597026   -0.81317064355288    1.70041420792774
H           0.67336251625288   -0.71569949826298    2.45824583550580
O           0.13652123253307    3.14288527965793    1.09847109449837
H           0.00261816735317    3.26257841948248    0.15441901029964
H           0.89492793385343    2.52585175432570    1.16490909802875
O          -1.82952398899388   -1.84896207700169   -0.04359980319259
H          -1.21298140669298   -2.27109614542719   -0.70942172001719
H          -1.31420070497435   -1.77214955804429    0.77235642905831
O          -1.91826738145558    0.58960953913781   -0.58638840898576
H          -0.96649550390803    0.82504008180945   -0.86097304298761
H          -1.95303616827564   -0.46325555489267   -0.43759283551124
O          -1.65686783264337    1.33774309763460    1.77271965041585
H          -1.06577703212287    2.12764547443950    1.66445796171791
H          -1.96696821151213    0.97351663882023    0.40757117113588
H          -1.06583322408488    0.59597741820300    1.99518207224468
N           0.03654389995917   -2.73045128614227   -1.69856520525187
H           0.74098859730501   -2.09097629607693   -1.32883861676036
H          -0.05252335930833   -2.55955434794189   -2.69179431510328
H           0.38140137452859   -3.67368259498889   -1.57508014461849
