    26
        -50.45688852  Gyration_radius:  2.45336153336 Dipole_moment: 5.086
 S           0.17088385704027    0.00914287550010   -1.84435008063528
O          -0.29656671216696    1.19794377203498   -1.12887131702573
O          -0.86184919164566   -0.95548760688402   -2.09815743753521
O           1.34659891290553   -0.54659833627926   -1.18896602542285
O           0.65160478938160    0.54179831974995   -3.25769225102905
H           1.28090212035460    1.22595279587433   -3.05163325989041
H           0.37083160032191   -1.36068279414115   -0.12580486010602
O          -0.23050387562842   -1.80179542595763    0.51257426437983
H          -0.52834794061393   -2.59291081296661    0.05813563489645
O           0.91333992920341   -0.12282269204632    2.43267633362413
H           1.79094181897104    0.04284611886723    1.98104087229624
H           0.58134560805097   -0.95030526881899    2.05559224358040
O          -3.01969751651398    0.37167079413847   -1.35872706760115
H          -2.33192132328383   -0.20709922945510   -1.74895010781560
H          -2.65601499399570    1.25884589480130   -1.42351755291990
O          -0.75190267318124    1.40049759580849    1.35721449583722
H          -0.01050844670302    0.83971632641623    1.87410348324109
H          -0.49657725502177    1.40385365380827    0.37145736424972
O          -2.51010651433576   -0.34495881505734    1.12234027256407
H          -1.59636558570709    0.74877023529441    1.36850936741882
H          -2.89215948114953   -0.12124271239448    0.23400086276959
H          -1.85860978519403   -1.05035767942656    0.95782199773103
N           3.06657739214148    0.24557934134504    0.94057799013037
H           3.43157442449527    1.17960315448969    0.80653448178566
H           2.58490550008442   -0.03233653312629    0.08465775153981
H           3.85162532218462   -0.37962297195764    1.06943254398692
