    26
        -50.45688879  Gyration_radius:  2.45342177436 Dipole_moment: 5.079
 S           1.71189040513942    0.68108282841797    0.19282935550100
O           1.45926375462639    1.38618430010522    1.41771706301397
O           0.85770638137040    1.10517006735735   -0.91812397991032
O           1.68005397725907   -0.76819028474145    0.33140924140187
O           3.18493086351114    1.05985844319332   -0.25371073898387
H           3.28841743679100    0.64593212882625   -1.10495271908602
H           0.28802042996961   -0.65457382559725    1.22187434102019
O          -0.55558117423245   -0.55915951024483    1.71486240113251
H          -0.28964138254435   -0.33406954886697    2.60912313177090
O          -0.20532186745429    3.26872052894866    0.61162152537972
H           0.46218177534340    2.69188279200171    1.03825889590317
H           0.01891284503011    3.24986852645323   -0.32266509505954
O          -1.72590617706527   -1.89394936863625   -0.44373598477049
H          -0.91814134366824   -2.38698635665280   -0.76958159920046
H          -1.54430727805143   -1.68589782965515    0.48413278352189
O          -1.55450203346482    0.43860012216979   -1.32592011098873
H          -1.66463359067912   -0.58322179866552   -1.05030306492813
H          -0.56348282279949    0.66404981617306   -1.26360666350086
O          -2.16214784989659    1.52152252206456    0.83106952767756
H          -1.95656967866668    0.95768177817361   -0.48564855615541
H          -1.71153057593687    0.83780405893258    1.35879116413293
H          -1.55466915142044    2.30635778166742    0.83556963500435
N           0.59544291771359   -2.94387717976890   -1.15541287680943
H           0.88174264593904   -2.92203803423532   -2.12554402701773
H           0.84818680113918   -3.84755098104238   -0.77684518156956
H           1.12968471193572   -2.23520099666870   -0.65120846761686
