    26
        -50.46887308  Gyration_radius:  2.48683811399 Dipole_moment: 3.036
 S           0.66984664014999   -0.99602161084058   -0.16118032326632
O           1.46113126685334   -0.47097941493678    0.94472053595054
O           0.67156533049030   -0.08275100772146   -1.29577044487160
O          -0.70507407204420   -1.28601101832918    0.26753573034000
O           1.33468576656838   -2.32681703038387   -0.57313284558373
H           0.80498855615867   -2.70785456007516   -1.32503031900021
H          -1.35161274393669    0.05598791187566    0.85242178123256
O          -1.72459132234734    0.92377124284274    1.15944803461935
H          -2.66992986644921    0.78839607928369    1.24559816263395
O           0.26367303967125    1.16147248874587    3.04059734429769
H           0.66856054780706    0.32007843154187    2.79166621595103
H          -0.58395773757004    1.17409767002737    2.56174192436168
O          -0.21820172326784   -3.29391120972541   -2.42267132747112
H          -0.70819186386412   -4.03222097282164   -2.05445344303826
H          -0.86042291017133   -2.54427538818647   -2.50303378666870
O          -1.70809525292397   -1.13159140810741   -2.16961379968234
H          -1.52548091966985   -1.20335261108135   -1.21010637733789
H          -1.07165254958112   -0.47419436746305   -2.47370851156046
O          -0.22002287153698    2.31250486868331   -0.68992676189131
H           0.98597682484424    2.41066715736206    0.30940293579812
H           0.09097295218040    1.47119662448509   -1.09818216261705
H          -0.95137184887612    2.04265409662502   -0.10886693808490
N           1.70313921628655    2.10219748702234    1.04414963688274
H           1.23860887932736    2.09805570515661    1.98433818626802
H           2.56926449815431    2.62670884335440    1.01750420196246
H           1.83619217375204    1.06219195261248    0.86655234078466
