    26
        -50.45688826  Gyration_radius:  2.45409553393 Dipole_moment: 5.089
 S           1.50026941336574   -0.54401979255868    0.94154624062795
O           0.85336662748448   -1.60665979832937    1.65846072554320
O           0.90836352454555    0.77354568344501    1.18113770316914
O           1.62566514528909   -0.79047628529297   -0.48826102592979
O           2.97519809442085   -0.44282037191030    1.51304986059996
H           3.34908162542590    0.31285849696989    1.07054860605520
H           0.05108757345355   -1.30355554798556   -0.54150817425797
O          -0.89455268550565   -1.56701600345020   -0.54868600172767
H          -0.89544254263955   -2.47495735905741   -0.23769344830455
O          -1.20686204629764    1.70090397211450    0.13565336354640
H          -1.24632220363498    1.37429248442406   -0.87584936701898
H          -0.30399572798253    1.41706731375197    0.51180305161965
O          -1.28771060043665    0.69095921303509   -2.14995849941996
H          -0.36634955330645    0.76316361682297   -2.53404518603688
H          -1.37959906442985   -0.23166006981451   -1.87177851095607
O          -0.78972593490266   -0.26464182572883    3.22845031410748
H          -0.33480387040450    0.58141271107916    3.20245701753564
H          -0.18095252719674   -0.88736235900479    2.77908346886983
O          -2.48470590390300   -0.13988058327707    1.21836177428271
H          -2.09729510439951   -0.81844070892940    0.63646155105937
H          -2.00907524778730   -0.22794551848613    2.08505242552638
H          -1.87596121838352    1.03251618047343    0.62892839142299
N           1.25447173706941    0.71207903554812   -2.88171707041383
H           1.54459567992453    0.15889083386239   -2.07454457325559
H           1.77477883983357    1.57970123769225   -2.87154653284792
H           1.51647600039834    0.20204544462635   -3.71540612370348
