    26
        -50.46862056  Gyration_radius:  2.50715917408 Dipole_moment: 3.957
 S           0.78296446894989   -0.01086189617712   -0.80381773163103
O           2.05046943179161   -0.50045433306372   -0.30712298962500
O           1.05337775877415    0.78975259263669   -2.09242829691014
O          -0.14304893899111   -1.09781883709210   -1.10800926404865
O           0.16701451646326    0.91834346404723    0.16747376232142
O          -2.60829485178629   -0.24190969340220   -1.66540892523424
H          -2.82019117152279    0.18145709060635   -0.81293710104951
H          -1.78924289055273   -0.74729656954439   -1.49533274785880
O           3.08432899639763   -0.01247828068602    2.06400560310213
H           2.83793818560251   -0.22389582093062    1.13227810434140
H           3.53738580991051    0.83119835733584    2.02789429821316
O           0.53291841916998   -2.64670412367089    0.88297170424953
H           0.18183003668976   -2.20026419223416    0.07628389033081
H           1.46533632413348   -2.78260806259193    0.69205753904020
O          -2.43782578251906    1.32233457120484    0.56840266774219
H          -2.65476186433444    2.20824843819168    0.27246394914416
H          -1.47570812094360    1.22109294529071    0.41622804098585
O          -1.25858978678041    1.63329367415050   -2.85262539554495
H          -1.87213332622986    0.94938194879101   -2.44788316609200
H           0.17015459011563    1.17041024573730   -2.38172323771061
H          -1.32016650288096    1.51513868250628   -3.80249294192877
N           0.48465112290391   -0.45368479495742    2.33763473178520
H           0.25411507155587    0.20052034484063    1.52537317175002
H           1.48798594789299   -0.26415780818474    2.56338895841123
H          -0.14102393633441   -0.32904898887539    3.12598540892512
H           0.43051649253710   -1.42998894391858    1.91733998727836
