    26
        -50.46887312  Gyration_radius:  2.48686283035 Dipole_moment: 3.034
 S           1.05837782262490    0.29907757734225    0.50676551297847
O           0.51380926432798    1.31207041033025   -0.38698052734956
O           1.57581486489323   -0.84280444854595   -0.23690819789083
O           0.04766892506183   -0.12473678693427    1.48504916051129
O           2.25704132428151    0.88873406827139    1.28040938734683
H           1.92427122899360    1.66839246050959    1.80246766440495
H          -1.12590951636834   -0.88714221808507    0.70890037423804
O          -1.85165534860198   -1.30866156418232    0.17784254609498
H          -2.59483069696534   -1.40355417343102    0.77623999433691
O           1.23751117946286    2.80407402555737    2.71501099978195
H           0.30442603094462    2.77501811296487    2.38437926284221
H           1.20996629406285    2.51825761331743    3.63053507004699
O          -0.09209921199881   -3.15300089040550   -0.84643140967950
H           0.65344549584213   -2.79255516917262   -0.34831269066582
H          -0.87155130072572   -2.70086103178346   -0.47753267052785
O          -1.09961747448840    2.24882844395261    1.62495748771384
H          -0.89996861411363    2.48613614161310    0.71198943136220
H          -0.82589005435448    1.31037915248305    1.68505222384800
O          -1.39178299032575    0.39416152714222   -1.94427896336443
H          -1.84272623065752   -0.16766968253973   -1.29141594347246
H          -0.74083635237051    0.91054256864108   -1.41436272504961
H          -0.31287048804776   -0.57839569706763   -2.53868281539893
N           0.52158319579046   -1.25091964228993   -2.56329059725528
H           1.13596088581313   -0.94350072502498   -1.75160779887567
H           1.00964125588797   -1.26679311886124   -3.45073358772332
H           0.20022049103165   -2.19507691379073   -2.23906118825313
