    26
        -50.45594199  Gyration_radius:  2.51648160545 Dipole_moment: 5.303
 S          -0.36707925953765   -0.61933256743069   -0.75976484416982
O          -1.37179706687966   -1.23901831158058    0.07475090316222
O           0.99283419965563   -0.99244368481023   -0.30156497004349
O          -0.49312079303585    0.84037944291307   -0.74716593340791
O          -0.52777647499859   -1.12488855125169   -2.19759297350687
H           0.39380172509650   -1.02675827872945   -2.60636531787588
H          -0.41827692586934    1.34176196766324    0.73439996109616
O          -0.28027054259647    1.55783069696537    1.70304023532978
H           0.15831708158987    2.40995878293568    1.73234283898612
O          -1.05300306526151   -2.13770586379858    2.59039386753590
H          -1.21692436214255   -2.32668742181059    1.64985113906562
H          -1.73307873897634   -1.45100151401037    2.79002961003208
O           1.89410277960831   -0.72220090364882   -2.84801289361350
H           1.84698892403175    0.26502155165772   -2.92585209613095
H           2.10321124128525   -0.90681099922527   -1.92206696930683
O          -2.59281953234910   -0.01681171550815    2.21538048237842
H          -2.46704608605242   -0.34594374110230    1.30973934163179
H          -2.05016537739055    0.77766859411124    2.27334291585764
O           0.92483404806130   -0.68681602865479    2.14524859126217
H           0.13798480014418   -1.36194198359161    2.44127022791804
H           1.05418730790338   -0.88102090381052    1.10339768110633
H           0.51356363456510    0.23362977266725    2.14988869551230
N           1.29131920074838    1.88461665752936   -2.71462200392795
H           1.86885603158976    2.63243535111278   -2.35207942296948
H           0.58760189742871    1.65650641139573   -2.01052750840793
H           0.80375535346056    2.23957322980427   -3.52746153726909
