    26
        -50.46228294  Gyration_radius:  2.41047709494 Dipole_moment: 5.704
 S           1.33745441727101    0.61947699759986    0.50404180458050
O           1.18803112623865    1.53565918850256    1.62483423711766
O           0.61686615534921    1.09986938545575   -0.68067658582305
O           0.88555122096103   -0.73237958286048    0.85280877528898
O           2.83585294104493    0.54510625353149    0.15265333973184
H           2.88821209044775   -0.09888765276811   -0.62499849350351
H           0.19887987412168   -1.44567068688285   -0.58600998311824
O          -0.18046138064319   -1.25250094296692   -1.46755853627692
H           0.03133390421307   -0.29949473396068   -1.54213022273098
O          -1.21082531667742    1.71886526908437    2.26771927600518
H          -1.39751694651503    0.69014829298748    2.36011818947987
H          -0.17759555777426    1.74796905156525    2.12047728535244
O          -2.57557070144953   -0.74928485014821   -0.44435618072174
H          -1.74520332663009   -1.02076272053215   -0.91504117080450
H          -3.29947523499383   -1.20890079592619   -0.87089941842290
O          -1.44043187463239   -0.77222796449822    2.07597923206448
H          -2.00956944581637   -0.88838662475527    1.29438969022226
H          -0.51904812421329   -0.89398782674577    1.74398222945160
O          -1.83231625130616    1.89574227905850   -0.15589363125441
H          -1.58175363484286    1.94243304145129    1.31088691252619
H          -0.90748910593761    1.75125792897997   -0.46871305740182
H          -2.29459839882898    1.05702589396369   -0.33331764318004
N           2.81623046214788   -1.13906738859096   -1.85359454213234
H           3.35114560770379   -1.97398543781815   -1.65344244171366
H           3.17432060159183   -0.72229465056474   -2.70290761240063
H           1.84797689922825   -1.40572172325311   -2.00835146223849
