    26
        -50.45594217  Gyration_radius:  2.5163775122 Dipole_moment: 5.307
 S          -0.43812442323355    0.85108718549081   -0.41954615910550
O          -1.37099199027315   -0.29454188060645   -0.29462003557888
O           0.30863743598156    0.76501120619887   -1.65444525800791
O           0.45568527587674    0.87026467274667    0.74117616347889
O          -1.27672816592801    2.13382874973228   -0.42895912167171
H          -2.05521967074419    1.93433058247310    0.18777579973565
H           1.37155785172878   -0.39926087768290    0.69359884568400
O           1.84734476421993   -1.27686078071653    0.60814014089658
H           2.02601913765684   -1.57796027683533    1.50076210724601
O          -3.04440314488175    1.26053899667001    1.17206231359942
H          -2.50751513511793    1.32160452633923    2.00338551040897
H          -2.85784109483758    0.38845961877462    0.79819029012174
O           0.76753227282761   -1.44659992722306   -3.11269416239047
H           1.71003923302484   -1.24195942223043   -2.90397010541300
H           0.33998663838393   -0.57685002878587   -3.02124544914544
O           2.82652063930998   -0.32160851401016   -1.88544465837079
H           2.91281831339771   -0.70470843311993   -1.00518619815313
H           2.13676402630545    0.35763323659674   -1.80130951405544
O          -0.01310333318688   -2.26541334993603   -0.89147995044726
H           0.77926234410976   -2.06012013740142   -0.30309339899528
H          -0.69615946560958   -1.48213953079654   -0.64696216205957
H           0.29968438599729   -2.03420931643532   -1.89744843190349
N          -1.13626470765961    1.41981451440715    3.04501064613464
H          -0.95789351656011    0.76951090282833    3.79977661138882
H          -0.98502088089805    2.35444525891625    3.40293526969156
H          -0.44258677971845    1.25570304456125    2.31359089649768
