    26
        -50.45594210  Gyration_radius:  2.51637951962 Dipole_moment: 5.306
 S           0.07113923236259    0.57695532621915   -0.86866828698435
O           0.37490241731435    1.33241242089842    0.37044046065749
O          -1.35179618334006    0.57200730050303   -1.12412779117674
O           0.59192049976035   -0.78633030153632   -0.73863096182778
O           0.78631288714090    1.27936127247563   -2.02786607159566
H           1.64408208909611    1.63367951573478   -1.62156817124034
H          -0.20576036274949   -1.52526834900200    0.38849535899465
O          -0.72189213043459   -1.87429111886219    1.17313918919810
H          -0.13944987941544   -2.48017430673350    1.63464217768079
O          -3.31643306863169    0.96429656737292    0.66891124007790
H          -3.56767042447048    0.04479303142959    0.41388951430458
H          -2.82114740173209    1.26950322961131   -0.11157311091212
O           2.80179965992375    1.98774741416510   -0.65467679755853
H           2.19217250896985    2.03456193670473    0.09451289737677
H           3.23771285994231    1.09905179712962   -0.59666134625619
O          -3.06390377645168   -1.45203509339719   -0.38438576193108
H          -2.48775294766896   -0.91495877776820   -0.95342853615009
H          -2.46479596323310   -1.97091105439950    0.16418177354405
O          -1.26840723725164    0.50888934434000    2.01522547950100
H          -2.20804615819508    0.75255105504671    1.54553140208523
H          -1.12846793662303   -0.47656014671301    1.85578776168842
H          -0.53734077957436    0.95554672807289    1.37807516400642
N           3.43793957207303   -0.61378760440909   -0.61894011188331
H           3.82306253719748   -1.14320137990101    0.15291178792652
H           3.87961984843183   -0.94349814093810   -1.46788797776628
H           2.44220011768856   -0.83034064604224   -0.68732927190082
