    26
        -50.46228286  Gyration_radius:  2.41043644758 Dipole_moment: 5.707
 S           1.46817847647873    0.26816593712614    0.44696857373605
O           1.60578619444224    1.29977293053798    1.46417955830541
O           0.88204645691973    0.80643864041587   -0.78622723737465
O           0.66645911045199   -0.86068735682942    0.93276198305432
O           2.87813790269172   -0.25703253343697    0.11440454497808
H           2.73100313401921   -0.96607162930600   -0.59120828892696
H          -0.22662888713864   -1.50004299640574   -0.42893370581956
O          -0.55579611431855   -1.29675093078401   -1.32798208622846
H          -0.08743914011943   -0.45349502372387   -1.49704510428545
O          -0.63201517043606    2.21245324942867    2.06548505450127
H          -1.09614817473272    1.29120566041386    2.26302709442639
H           0.36470788301536    1.93622856819557    1.92376074687152
O          -1.55089962979058   -0.12049384520453    2.13373080643974
H          -2.14637362511988   -0.15182785536666    1.36360421404260
H          -0.70761507729103   -0.52923786721808    1.82422564421804
O          -2.69142659178529   -0.04056236498093   -0.38098137750943
H          -1.98058386864680   -0.58006920380094   -0.81508660464231
H          -3.52493886443151   -0.32425362348575   -0.75784564758056
O          -1.23424930808047    2.30782544284935   -0.36807028188724
H          -0.39406773739606    1.87814511936001   -0.65685958769844
H          -1.91655257556459    1.61911094257431   -0.46025876802663
H          -0.94713197677104    2.43226244061542    1.08842637137582
N           2.34424240977853   -2.06415922076863   -1.70526189405451
H           2.78522671793977   -1.85276753014495   -2.59075583952373
H           1.33687019935218   -2.06354821269119   -1.83834388727010
H           2.62920825594531   -2.99060872818035   -1.41571428278082
