    26
        -50.46577281  Gyration_radius:  2.41264148586 Dipole_moment: 4.008
 S          -0.07746026668903   -1.11950462544069    1.01513909515155
O           0.88133263474717   -1.12804479347810   -0.09024501538284
O          -1.25239862523201   -1.90321592781477    0.73174962789759
O          -0.53486870910082    0.38955675364606    1.17475866724956
O           0.56692699945475   -1.40486706557294    2.29017510351878
H           1.25209605980902   -0.15128190653636    2.59454594812856
H          -1.19125167599482    0.55412519748781    0.44223752186061
O          -2.09465680382029    0.72586161501743   -0.85836530260896
H          -2.77660754622257    0.04896344918126   -0.82001169849395
O           2.37980443633910    0.99643316479553    0.18116047282045
H           1.98452579253038    0.11325130680444   -0.00812243892308
H           1.83168900196514    1.61369598226258   -0.34888385964357
O          -2.21832722450857   -2.11549795288975   -1.71694772710633
H          -2.53276470953560   -3.01081592027351   -1.84536520500818
H          -1.86291741786203   -2.08850281982983   -0.79975281742511
O           0.52711020147481    2.21277080766507   -1.36438508247152
H          -0.34478498211187    2.29282278944752   -0.96762941820891
H           0.45385220583302    1.50084798513930   -2.01419836452768
O          -0.21215463429480   -0.36564670723241   -2.36286726293153
H          -1.45954609641924    0.39580145734604   -1.54484335710488
H           0.29508221033264   -0.70608749991441   -1.59041324387833
H          -0.79994673380188   -1.09735375003158   -2.60197542551173
N           1.70345379747920    0.84297838103651    2.65440727906449
H           2.05699748739139    1.02669019324930    1.63129952477360
H           2.45738866696276    0.87339126353107    3.33304571735224
H           0.96742594127107    1.50362862238229    2.88548727141323
