    26
        -50.46228298  Gyration_radius:  2.41041945289 Dipole_moment: 5.705
 S           0.12029609994104   -1.02503645515260   -1.16705655734870
O          -0.50968452630112   -2.30989721327748   -0.90240071695304
O           1.20246910411519   -0.75210636200136   -0.21422401680408
O          -0.85915425576437    0.06756188852091   -1.14116776736301
O           0.73241176119701   -1.08208606326548   -2.58007810760296
H           1.15096288265180   -0.17221539820260   -2.71815630820551
H          -0.05195318531563    1.48111872812766   -0.51456959947822
O           0.71816556883015    1.79951910065867   -0.00059211914867
H           1.23711385676500    0.97199173328750    0.06401170749782
O          -0.50174849846066    1.34284613118673    2.30997520469630
H          -0.48503831228958    2.07660382155189    2.92522272875982
H          -0.01805365562515    1.63907414308811    1.49564217419900
O          -1.53176449268905   -2.31129235314957    1.36869646377401
H          -2.08991800344491   -1.42891585226848    1.25763463705026
H          -1.15963604609267   -2.46471264266281    0.40552120229588
O          -2.46925543250422   -0.02534239325460    0.93408864293844
H          -2.02370196572734    0.05924454223774    0.05752600192563
H          -1.95907976746680    0.54678042372188    1.53481718042927
O           0.53270037721355   -1.21908308779421    2.28367790721780
H           0.23003242858011   -0.32373720485149    2.51878587617771
H          -0.67981128288380   -1.98929587201390    1.89155474256183
H           0.95234713914902   -1.12419667366725    1.39543866491916
N           1.76716654433275    1.31503791773791   -2.79482374970872
H           1.35096188069243    1.83982992714023   -3.55298371861394
H           2.76888877422814    1.28744249330450   -2.93333349594192
H           1.57528299658085    1.80086672103149   -1.92320696776682
