    26
        -50.44902669  Gyration_radius:  2.49118897783 Dipole_moment: 4.996
 S           1.11760332655288    0.66260580898102   -1.39062382737441
O           2.23288610910720    1.26431640188063   -0.68961208015018
O          -0.16827898141765    1.18217525085676   -0.98546785563772
O           1.12270563045524   -0.79950087357632   -1.32092284742657
O           1.33571988041341    1.04014382617403   -2.91939140457391
H           2.17826240020938    1.48056819302485   -2.88108341097112
H          -0.29323894867933   -1.18025436833284   -0.78193274926230
O          -1.11908968976345   -1.49744562168604   -0.31225077533723
H          -0.99294108134157   -2.43765555274960   -0.16986883247909
O           1.33933968150143    0.71425022240273    1.72462797407311
H           1.77792081734397   -0.17468450502842    1.72916911399605
H           1.63943735305457    1.10525069628304    0.87342711726803
O          -3.46774571407647   -0.01649584755781   -0.81543382149327
H          -4.08819125583653   -0.63184070705018   -0.42182526013655
H          -2.62286694246037   -0.48423432723845   -0.90041994356447
O          -2.20616653602321    2.04362547164996    0.40755404474063
H          -2.88239089422267    1.51717101925709   -0.06238136383894
H          -1.45357331070320    2.06283553301152   -0.21504707243588
O          -1.09067554600419    0.20017643475000    1.67677769632241
H          -0.04812921199893    0.47566756326838    1.73857429196497
H          -1.59259865932188    1.03944433413816    1.25288208880113
H          -1.12906688918314   -0.49655699045017    0.95476191729050
N           2.47938573076011   -1.60763357081090    1.06699230509988
H           2.34754801267840   -2.58668389831535    1.28809157265776
H           3.47628081397219   -1.43652380462094    1.02300792453560
H           2.10786391497731   -1.43872068826050    0.13039520793514
