    26
        -50.44902658  Gyration_radius:  2.49103180229 Dipole_moment: 4.981
 S          -0.29167290379921   -1.24673885907891   -1.40515050836732
O          -1.19820414715584   -0.21962107623846   -0.94612717612826
O          -0.46215123606861   -2.51549291420529   -0.72837782815513
O           1.08919237401363   -0.76238580800049   -1.36887026480816
O          -0.62362629235617   -1.54214634394028   -2.93162889867105
H          -0.75430655139085   -2.48461887941053   -2.91295478857720
H           0.99215189686975    0.68729585946927   -0.79695098472021
O           1.02980168648057    1.56201921232633   -0.31009856899154
H           1.96211444590115    1.75284953554955   -0.18934947790473
O          -0.17804542142513   -1.53506350355667    1.69970289502205
H          -0.47068251478610   -1.93126394888303    0.84863691830192
H           0.80561933747577   -1.65310871379990    1.67426453185822
O          -2.64756159843287    1.39342673701326    0.51459065071470
H          -2.38819557013205    2.21395990095235    0.05099745313046
H          -2.43545578052714    0.68784375131326   -0.12678058178275
O          -1.16167422612947    3.29027402475205   -0.71948314527748
H          -0.43998051351023    2.65317794022522   -0.83436385031739
H          -0.77943972871972    4.07610037454222   -0.32584925069878
O          -0.50214318843781    0.92874485270694    1.71214458786559
H          -1.47262271282583    1.13180144375054    1.32053245467508
H          -0.41425018567932   -0.14610197306063    1.74886420409789
H           0.12060524954535    1.21153224692745    0.97677504079507
N           2.36991871332439   -1.82762970332352    0.95971984645278
H           2.06000515679636   -1.51146049882861    0.03899030449989
H           2.53113238463899   -2.82464776444438    0.88866468495214
H           3.25947132633098   -1.38874589275746    1.16210175203403
