    26
        -50.46487747  Gyration_radius:  2.37987121793 Dipole_moment: 4.239
 S           0.44332202412337   -0.45873720536897   -1.43861797682795
O           0.49826650422908    0.72698390574365   -0.57464176958847
O          -0.63984721018350   -0.40837579530942   -2.38418552452808
O           0.20895567576560   -1.67595253835833   -0.46897518527139
O           1.76365076258264   -0.70914529836267   -2.01031753432578
H           2.58117584092834   -0.28199306136337   -0.91736298651198
H          -0.71373434904893   -1.57025094979515   -0.04772052568063
O          -1.98215055497344   -1.17462706124069    0.71030225057055
H          -2.47722249891092   -0.62085442731080    0.07168775308285
O           1.71619563223826   -1.29252525383692    1.79755392052826
H           1.07396456969342   -0.69171542493585    2.20853507553143
H           1.20880344262989   -1.77373055122150    1.12208227718765
O          -2.89498559374075    0.35379087914806   -1.31554067813420
H          -3.60375436433717    0.07194043397694   -1.89602438325508
H          -2.05400351932109    0.13501424357784   -1.78883096525455
O          -1.62526875646553    2.39350032642780    0.20058147852339
H          -0.83099128574543    2.06759880203978   -0.24466949443490
H          -2.35180762236077    1.95166005685308   -0.25421220620570
O          -0.30274670299311    0.58909861100446    1.92889954646717
H          -0.82055319400367    1.39490476789542    2.04194816207384
H          -1.58149794339136   -0.55965619321258    1.35592189796734
H           0.02964242981100    0.66113929474895    1.00353419883019
N           3.02843302846556    0.12891308792555    0.01112690531385
H           2.61974025561757   -0.44612849618149    0.81577361750820
H           2.66296815259191    1.07795200342908    0.07579064085264
H           4.04344526695038    0.11119583376150   -0.00263848434240
