    26
        -50.44902429  Gyration_radius:  2.49026875355 Dipole_moment: 5.041
 S           1.45370154373095   -1.19518298650225    0.25996995369650
O           1.49434347248995    0.11569785605257   -0.34545160841267
O           1.21302494014108   -2.26521912919845   -0.68535937572680
O           0.51668088913392   -1.20957113530571    1.38501714211813
O           2.89175935021301   -1.49267704403079    0.86895096186711
H           3.07261076003610   -2.35311396557237    0.50497065371127
H          -0.08283945647304    0.23182582149345    1.42450499040330
O          -0.61291735530696    1.08180300394705    1.42969014736769
H          -1.30379596563848    0.95384803999882    2.08277365485394
O           1.00968438909300    2.25405091282994   -1.77017947448825
H           1.09449356165025    2.88948888801723   -1.03220095204364
H           1.48369784670663    1.46240751735713   -1.44997553074559
O          -0.99278084348288   -1.21996674114926   -1.67610691072253
H          -0.09385356531954   -1.56960331443748   -1.48495527629557
H          -1.55529011257222   -1.66645406238852   -0.99318978981435
O           0.79366523923818    3.40600287943235    0.66970356909953
H           0.14060807370570    4.04771821816711    0.95306766005377
H           0.53547849180252    2.55346614422205    1.05235366469863
O          -1.16277208717460    1.19731956573795   -1.12447713257358
H          -1.08821184765864    0.16524623590087   -1.42983284825009
H          -1.00986661855911    1.18200748912148   -0.13209516900874
H          -0.29586706086008    1.68245913052141   -1.51150895098034
N          -1.92516533190650   -2.42525680188382    0.51555015179673
H          -2.68846224460290   -2.29798010881836    1.16827455035801
H          -1.06415451565578   -2.10849524043841    0.96510596040614
H          -1.82377154271418   -3.41982119307109    0.35539995863746
