    26
        -50.46487772  Gyration_radius:  2.37972392378 Dipole_moment: 4.242
 S           1.27978942175146   -0.23844072737973    0.88302062669114
O           1.21589534438347    0.46859478800865    2.13435141637429
O           0.83838211502691    0.57871941344468   -0.25397115513880
O           0.28209639831588   -1.45421975852043    0.94025009282791
O           2.56900320861060   -0.85094039276905    0.57385707154825
H           2.40188128182096   -1.06298414710378   -0.83048738216214
H          -0.64243772499466   -1.09306532291079    1.17457557306986
O          -2.01232568421179   -0.41856509926172    1.26552437759552
H          -1.83211791308444    0.42326855443224    1.73265043989256
O          -1.01247589327955    1.78916795297841    2.44936823256761
H          -0.12058800959674    1.37202665323516    2.35138701097936
H          -1.11603577475826    1.97091508691371    3.38479499334141
O          -0.25563575035888   -2.26015210010233   -1.63163532118741
H          -0.17791892755962   -2.31954202000261   -0.66429683844100
H          -0.92240438639824   -1.57159292840699   -1.78486499064846
O          -0.97711303798886    2.72009110491512   -0.23427880240060
H          -0.15053666387192    2.21969067221843   -0.27530509141510
H          -1.20406363990000    2.72920784623888    0.70296603678149
O          -1.52354902430768    0.17961587337432   -1.34484202617531
H          -2.12659464773862   -0.19078107717148    0.32168447179657
H          -1.86465721743204    1.07309831815044   -1.46985916777753
H          -0.62303114706607    0.33100154872398   -0.97319179879695
N           2.09466089940629   -1.10207836915051   -1.89593477269478
H           2.80114568672938   -1.52209568102322   -2.49189114843115
H           1.90931807759929   -0.13201160711376   -2.14693478451098
H           1.16931302890952   -1.63892858138720   -1.91693708313016
