    26
        -50.44902436  Gyration_radius:  2.49045768633 Dipole_moment: 5.054
 S           0.02563803439756   -1.71998833712572   -0.81399037306533
O          -0.93502648210354   -2.48947846918145   -0.05121291967501
O           1.06147722838369   -1.11983534674538   -0.00563881790388
O          -0.60470800801508   -0.71168166046529   -1.66820278541336
O           0.71743836324294   -2.76715959520661   -1.78972978458442
H           0.18088504927155   -3.53927444493840   -1.64231296799450
H           0.10692989043033    0.62815479432920   -1.29625372350000
O           0.41187426022773    1.54078335515931   -1.01801915433785
H          -0.13954664534608    2.15854414503505   -1.50225764554923
O           3.10194642091582    1.73802554762046   -0.19102682652631
H           2.28205071833073    1.50972635073326   -0.65525464882604
H           3.15820402118159    2.69475231466034   -0.17951418001752
O           2.39323122841793    0.12806180511458    1.86666535032167
H           2.09235902591278   -0.60880065256810    1.30048136300423
H           2.92417831972780    0.68330558336463    1.26220107296057
O          -1.55448743158122   -0.53952553474757    1.60657894294306
H          -2.26488722443671   -0.20065383175769    1.00432216878292
H          -1.24273526835303   -1.35109938113434    1.14683558584661
O           0.17510018520847    1.24398345827942    1.56969021525628
H           0.25024001131264    1.42185278195952    0.58432270164384
H          -0.56190590035534    0.45943051480457    1.65199553130148
H           1.10971558624470    0.79864422375492    1.82353250086858
N          -3.09647714367267    0.05942048998436   -0.48855003568375
H          -2.30518405476785   -0.23971902542352   -1.06143500936124
H          -3.49122566943945    0.89345993375763   -0.90498544207955
H          -3.79508449511870   -0.67092900927810   -0.54824113839545
