    26
        -50.46487770  Gyration_radius:  2.37965877776 Dipole_moment: 4.240
 S           0.54928296680292   -1.11018266282033   -0.96959533786064
O           0.19009223227707   -0.86039229671027   -2.34015361565486
O          -0.56485894227255   -0.88388116282515   -0.04057290685565
O           1.66518487406412   -0.08443930450638   -0.54654177823782
O           1.14817998242004   -2.41583001647678   -0.70625507559142
H           0.97456869326341   -2.47633872066268    0.71209406645022
H           1.31362288206670    0.85600609808327   -0.72642449700557
O           0.59234110904609    2.20311787556526   -0.78680491322749
H          -0.08387606130307    2.07973881939289   -1.48457139128368
O           1.73368765504039    0.04426471690266    2.19775616863393
H           2.04820972863608    0.12826498468348    1.28157541512906
H           0.98439731904519    0.65815627446926    2.25983730419669
O          -1.15492261891367    1.35299618625683   -2.65757153153231
H          -0.71658116603611    0.46868069909190   -2.58728064617747
H          -1.09277289702902    1.60430766361436   -3.58047336352825
O          -2.74827223524500    0.85148861673180   -0.35988950402306
H          -2.21888077500126    0.04360829460016   -0.31168978772959
H          -2.52868384168293    1.22950956027218   -1.21949532272728
O          -0.62956703657860    1.27615106088819    1.46203632560146
H          -0.61568971668379    0.44532630003018    0.93145601349203
H           0.11893987857571    2.15440952011313    0.06722406889595
H          -1.54623263138180    1.56804973465397    1.39270761821282
N           0.71241779628954   -2.34723074924215    1.78242065371161
H           1.16000907594203   -1.42425867121324    2.08688071050101
H           1.00932914544800   -3.13088056752099    2.35554664425808
H          -0.29992540665833   -2.23064225385485    1.78778465190798
