    26
        -50.45153558  Gyration_radius:  2.49371532038 Dipole_moment: 7.529
 S          -0.86020746290942    0.12471377595817   -1.16444192994357
O          -0.33089655665135    0.74705892146749   -2.33796951543868
O          -1.29601686189535    1.02342790319082   -0.12800758081014
O           0.20422327105154   -0.82563698570202   -0.56379182542094
O          -1.98755368714410   -0.82692908879746   -1.56635896452997
H          -2.32603646142415   -1.25162831592187   -0.70891823959404
H           0.47228362802398   -0.42729482779318    0.35870287864368
O           0.68556255431487    0.35791292282951    1.58764735700362
H          -0.13721869471052    0.86223379031478    1.51443146511040
O           0.16504208089003    3.21032930634191   -0.82424739975868
H          -0.50778913468601    2.58501828989669   -0.51158999786592
H           0.24321857447778    3.04395475429658   -1.76731972610865
O           2.35632049684883    0.53645558324056   -1.96706423819712
H           2.44434396734328   -0.40908756015191   -1.83345132668663
H           1.43946169574853    0.67646377467753   -2.26001317523661
O          -2.65985120335075   -1.95473793749899    0.61509069318347
H          -1.84084839618771   -2.09227342430264    1.17824947716082
H          -3.02507910572165   -2.82435023133668    0.43772647896709
O           2.26938940728607    1.96684077865213    0.35862046108393
H           1.40344092785057    0.98771359019818    1.24812569745889
H           2.52846365497853    1.48183510881889   -0.44807828165149
H           1.62594660319551    2.63208405691983    0.04207750156708
N          -0.46115314314213   -2.38527626873615    2.06140536202951
H          -0.06316017236189   -1.47400254138176    2.26643232319758
H           0.20674310615443   -2.87442693511850    1.47803222628704
H          -0.54862910798664   -2.89039845011446    2.93471026952057
