    26
        -50.46928630  Gyration_radius:  2.44094155784 Dipole_moment: 3.985
 S           0.72590426670305   -1.08027824691482    1.76030108260651
O          -0.08548787191466    0.13870757807470    1.71051323935675
O           1.80662731635961   -1.03685906723841    0.81168746967100
O          -0.08692421570502   -2.27959422728855    1.67883895094113
O           1.35105836841144   -1.11555316706439    3.22100347917663
H           1.03446359568106   -1.96365688874839    3.51091001689055
H          -0.47332869283561   -2.20831841858239    0.12772973678984
O          -0.79877633181531   -2.12576219412963   -0.80338673580672
H          -0.78076449059654   -3.01378391576292   -1.16501873913465
O           2.28361060364863    0.70301913012811   -1.14216319522425
H           2.27532829256212   -0.00216667310199   -0.46483461630333
H           1.95730093337766    1.48368770096844   -0.67635297351401
O           0.67439847739238    2.32258501712086    0.54678507642647
H           0.46048263342933    1.47358082158975    1.01939659558293
H           0.80781577331093    2.97719886345047    1.23332350336759
O          -2.35416648671258   -0.14172187326815    0.37415984270037
H          -1.63250829346749   -0.06584131452053    1.03539183067364
H          -2.15763128930414   -0.96753434648025   -0.09315009186617
O           0.17776619957983   -0.15368795736313   -2.46785845592383
H           1.06747056947169    0.11215782869107   -2.11698078750990
H          -0.08146264036988   -0.93853658402714   -1.95130014314450
H          -0.68492757206653    0.92575783651608   -1.87330791921761
N          -1.25316247434167    1.61029023130555   -1.24297803515467
H          -1.84452133264696    0.98563299844955   -0.61129308015056
H          -1.81595281404266    2.25561603881741   -1.78391333383740
H          -0.57261252409555    2.10506081938904   -0.63750271739859
