    26
        -50.46044994  Gyration_radius:  2.45530081524 Dipole_moment: 6.760
 S           0.42036512328156    0.72366739748635   -1.32037470677686
O           1.09596201082176    1.93530574685655   -0.95572378576291
O          -0.92743616068135    0.62471068596835   -0.75947825257760
O           1.21982420833391   -0.50848743210907   -0.73319527012092
O           0.41585072844838    0.44032928814251   -2.75755308461268
H           0.13185689060722   -0.93692467240815   -2.77740973441512
H           0.90824505541819   -0.74005246541528    0.18391910628708
O           0.35307480879856   -1.36235997100412    1.56380419316053
H           1.08583482727188   -1.75184242747013    2.04377721376147
O           2.00890522976449    1.99509062526924    1.52140535388801
H           1.71220120537022    1.95958061747009    0.58494052700047
H           2.15284991778688    2.92485276496899    1.70620184780663
O          -1.48707709640419   -1.88440433269848   -0.45518427281069
H          -0.98012248845559   -2.03629843133632    0.35641737883027
H          -1.48065369928616   -0.89936587817837   -0.54353372708653
O          -1.86957000389449    2.08372315705637    1.25235859692312
H          -2.80809628400776    1.89003198009257    1.24315933274709
H          -1.49753831630155    1.65920908537142    0.45184608912472
O          -0.05004988026247    0.83377127853223    2.80397683698647
H           0.11291338282171   -0.52236035827766    2.08692858928365
H           0.75620408611125    1.28996033256625    2.48079023442876
H          -0.78817606826531    1.32046150730013    2.38468698131542
N          -0.07341824392106   -2.03051854382951   -2.64779588453800
H           0.81858267078744   -2.49450074572124   -2.50483525633175
H          -0.55795680362076   -2.41101280453006   -3.45454042998625
H          -0.67257511039084   -2.10256639400971   -1.75458785665665
