    26
        -50.45662715  Gyration_radius:  2.48396845626 Dipole_moment: 1.831
 S          -0.90516681362885   -0.91896109384030   -1.61875232150347
O           0.18164958728112   -1.82375944443540   -1.25137005478872
O          -0.53470937557301    0.46542013343324   -1.41239238526280
O          -2.16301106741446   -1.30780961723616   -1.01948159286330
O          -1.10176418400426   -1.07954110507382   -3.18765333968363
H          -1.65143661071358   -1.85460280222163   -3.23324658681313
H          -1.68133564122187   -1.32379676929371    0.49672716344288
O          -1.35729040424008   -1.37660074579095    1.43169183303222
H          -1.53132745897004   -2.27683643053900    1.71299568648688
O           2.26928091534792   -0.83043306803006   -0.27490321106179
H           1.48079947082059   -1.31298923338268   -0.72310109092112
H           2.31066658994196    0.12864174289853   -0.77770292357304
O          -2.07907712967544    1.10495383407214    2.46713567694636
H          -1.80170650769471    1.05570092263726    3.38366111035731
H          -1.98765558816728    0.20837800683095    2.10252644315225
O          -0.07590312416578    1.96112038892792    0.81301085625859
H          -0.33996206268280    1.53112700225169   -0.01972720078855
H          -0.87299400308311    1.92780436055101    1.37345517431547
O           1.07047474827218   -0.17566919863794    1.82450851403662
H           1.88100814277997   -0.60255773346500    0.67423630669993
H           0.75396497126715    0.72408786131896    1.54067593470722
H           0.26854873162289   -0.72915049229638    1.78081184133481
N           2.07646676640683    1.41025601324792   -1.41763113026573
H           2.61268670326351    1.68503439142050   -2.22930612091515
H           2.07387923546783    2.16861974643971   -0.74597920186576
H           1.10391411902180    1.24156332081955   -1.69018938039731
