    26
        -50.44768859  Gyration_radius:  2.67891648721 Dipole_moment: 3.501
 S           1.68728836659994   -0.10533452423571    0.75877186628199
O           2.53334827671474    1.03903813563122    0.59207602752725
O           1.31286836501831   -0.83117668232234   -0.41116214476101
O           0.44051571927823    0.37240747174595    1.53026542684658
O           2.35207973124057   -1.10062657350006    1.75145238344563
H           2.68674654453001   -0.54071364958946    2.49168249920731
H          -0.44557401811245   -0.10715786743873    1.27954144290529
O          -1.77086348078153   -0.65643090995178    0.94073453129741
H          -2.37829860477036   -0.44372592211315    1.65209140957220
O           2.91548549597003    0.98292852285067    3.22854319483594
H           2.99774948072951    1.33991079380154    2.32681781143553
H           2.10558722205257    1.34918915853863    3.59238546356254
O          -2.12813916411201   -1.00712138082969   -2.87793587561886
H          -1.58849724893348   -1.59995597204969   -2.30518722532772
H          -2.84689878110078   -1.54247755054440   -3.21591518257276
O          -0.81503046396348   -2.44662560575905   -1.03328927057551
H          -1.28910635618437   -2.14406073467369   -0.24864313452499
H           0.05982918527119   -2.03612074037579   -0.96105458231770
O          -2.27859757888058    0.89594479245714   -0.98496606021504
H          -2.33820662574680    0.29669359442883   -1.76000598368415
H          -2.02433604873328   -0.02760392374948    0.15146903128435
H          -1.41110592738983    1.35428547656863   -1.09723941201430
N           0.27560959875005    1.73936212649453   -1.30631035369844
H           0.51288091283097    2.30863483561408   -2.11037432825797
H           0.64534213752541    0.80877225302281   -1.47177014828339
H           0.78932325205121    2.10196488518385   -0.51197739625338
