    26
        -50.44768846  Gyration_radius:  2.67876396421 Dipole_moment: 3.496
 S           1.65364426002493    0.27545871498154   -0.79238117747862
O           0.44535585062144    0.84424910675001   -1.29455590432502
O           2.21295640539347   -0.83693876221895   -1.50142667976749
O           1.48106621060300   -0.17261692323504    0.67316975241233
O           2.71319153631369    1.40894373712304   -0.68817020624165
H           3.55261429323637    0.95422296775420   -0.43922568245078
H           0.66035198952311    0.22991784108024    1.16519209602866
O          -0.52001257641328    0.67018148868034    1.93114612014531
H          -0.35467963454274    0.51014466088775    2.86243315486349
O           4.43244467282776   -0.46418730386259   -0.07454215318827
H           3.85219216620779   -0.91653791211778   -0.71167981852569
H           4.21877943815195   -0.82450824994495    0.78974306507890
O          -1.59620703993742    2.26874643924536   -0.14217662828334
H          -1.27797151274692    2.03414500004080    0.73852411470639
H          -0.92538987804327    1.91379180220200   -0.74472761101865
O          -3.66388320501710    0.56540182383597   -0.29110295922771
H          -4.44771317560585    1.02261980440978    0.01546903260636
H          -2.95352355326112    1.24556669109021   -0.35029194519928
O          -2.11192466728360   -1.11489520717646    1.12148181165833
H          -2.80454292961483   -0.61153182135918    0.64161160808736
H          -1.57914851271832   -1.53890444594848    0.40627555819158
H          -1.20272443469136   -0.05631575786719    1.63363961561367
N          -0.59549117441021   -1.86044725977207   -0.99608085752611
H          -0.97853975338113   -2.50314261869503   -1.67953563990949
H           0.37721296716641   -2.10649403576147   -0.85595156360308
H          -0.58805776238508   -0.93686977014709   -1.41683708267004
