    26
        -50.46485773  Gyration_radius:  2.56492324406 Dipole_moment: 4.106
 S           0.54176917826492   -0.37657477075776    0.64892919430320
O          -0.27072829590929   -1.12998335215543    1.73358781890477
O          -0.09532315452025   -0.62268511209531   -0.64835436968542
O           0.51368986563678    1.04599094310872    0.97332296845925
O           1.90086258500674   -0.90271158317668    0.67241431428663
O          -1.36500455478817    1.32767232495439    2.82328039025446
H          -1.21505354458130    0.50034807922633    3.28832112528817
H          -0.63683291721817    1.38097176026806    2.17008957646561
O           1.19140133196536   -1.70484042060001   -2.67225091209260
H           0.60591794426510   -1.33115729226576   -1.97090109201812
H           1.20682097204033   -2.65134874644637   -2.52167760270366
O          -3.45870265983281    0.99812242146667    1.19450151092288
H          -2.71402743176823    1.23889079359039    1.79429792541602
H          -4.25814397542088    1.06571639252803    1.71855181462957
O           1.12047059329577    1.97392894689010   -1.39069707657711
H           0.34558246455705    1.70023871925468   -1.88861309582392
H           0.89087005359384    1.78674499299026   -0.44898698411613
H           2.30166834410195    0.89968814434373   -1.59181145022413
O          -2.43402967527226   -1.34117383704466    0.42366961703856
H          -1.86803404640079   -1.11382441893350   -0.33050666352972
H          -1.18185590026312   -1.30755930229044    1.32155441202977
H          -2.92872638584826   -0.51787345000748    0.64505390679818
N           2.86648840857565    0.00320956365311   -1.52730327007058
H           2.45066654749361   -0.68503274106864   -2.19662217739747
H           2.63060994429457   -0.38766138170053   -0.55334443439498
H           3.85964433872112    0.15090336627282   -1.66650542617595
