    26
        -50.44835644  Gyration_radius:  2.64576470849 Dipole_moment: 5.189
 S           1.05265094457089    1.05710670354692   -0.25619284415044
O          -0.14869265722542    1.58907638245139    0.30147692046907
O           0.96977523593250    0.61730377711570   -1.62626818766964
O           1.56604102629251   -0.12270598539003    0.60725024602462
O           2.19317582994110    2.06706496309546   -0.10502837270672
H           2.95609370902353    1.67520314128642   -0.67203012142877
H           0.88099187307450   -0.87676917952183    0.66422934280489
O          -0.12437364470942   -2.01365599315083    0.73269144572559
H           0.21225289678464   -2.70433386287022    1.30673219292830
O          -1.42573692009207    1.32848545159440    2.64423144355415
H          -2.16124367576050    1.94183401133985    2.58701417837313
H          -0.90028436479100    1.47559623507675    1.83512892435221
O          -3.38604254525848   -0.30550568773383   -0.45114863213215
H          -2.58645284117353   -0.46633418470800   -1.00042122499014
H          -4.09172242299901   -0.80929685157922   -0.85929126514221
O          -1.15450382480943   -1.08233038984803   -1.73455976388306
H          -0.81095095693481   -1.66555850783815   -1.04582858217644
H          -0.47191888771822   -0.40333797757781   -1.85962922904582
O          -2.22076152223297   -1.10827506108729    1.83635846821177
H          -1.94472267063863   -0.27614648432776    2.27794432640986
H          -2.75803454261673   -0.81665412539748    1.06740718313596
H          -0.97527670536348   -1.65865133523769    1.19595313498111
N           3.76921481467974    0.80811041284052   -1.67938066990201
H           4.28172286053981    0.03860235572997   -1.27027145690834
H           4.35039164644720    1.26156141486731   -2.37156314689189
H           2.92840734501911    0.44961076736825   -2.12480432995870
