    26
        -50.44835622  Gyration_radius:  2.64523799678 Dipole_moment: 5.183
 S           1.37770203388066    0.04864764213257   -0.62933295436168
O           0.90699006392903    1.33382418896356   -0.22459267288517
O           0.72468563842904   -0.52842880813638   -1.77732409354659
O           1.27475839441179   -0.95344105437571    0.54828977750530
O           2.89020294903452    0.09355598193473   -0.86234735251557
H           3.10614681702153   -0.81156441142693   -1.29949564747570
H           0.31340375892130   -1.05735365546689    0.87402604260482
O          -1.11914075925225   -1.23563708722931    1.34789009390141
H          -1.13569463303683   -1.82999887346999    2.10043259280442
O           0.32702897839267    2.48094196401205    2.12818239482528
H           0.11644082043983    3.39054274521609    1.90757927116659
H           0.62592344671686    2.07284969500909    1.29359255047760
O          -1.94378258109684   -0.44683379181894   -1.24320217414593
H          -1.86336417589997   -0.94056802372419   -0.41718814235454
H          -1.04522318310411   -0.41145360223805   -1.60920285267746
O          -2.88623941361647    1.84117631005045   -0.19110662429909
H          -3.82478971953095    1.83284838427924   -0.38451884543350
H          -2.50043713377261    1.08717540180837   -0.69068515189422
O          -1.92718360855676    1.01862524006840    2.18351464309235
H          -1.11487120595555    1.55238940146734    2.32079114712775
H          -2.34781896729326    1.40453075434483    1.38406421604615
H          -1.45101579553085   -0.32646982488096    1.70547087225586
N           2.97010392444592   -2.19814132948661   -1.99761457225853
H           2.00646031057169   -2.02129528519667   -2.26974862686301
H           2.99806505591919   -2.99563998248221   -1.37681376994282
H           3.52164896454283   -2.40028195935590   -2.82066013115221
