    26
        -50.46928963  Gyration_radius:  2.44045074296 Dipole_moment: 4.032
 S          -1.39644130535710   -0.80288751559013    1.48139217049442
O           0.02294957590390   -1.12180821276958    1.30385747253671
O          -2.08898927449372   -0.74930129762007    0.22185762628927
O          -1.58936223805178    0.36788555188798    2.31665465820599
O          -2.00060984254347   -2.00551866736925    2.32652664991273
H          -2.31732807823385   -1.52699805789500    3.08435817811349
H          -1.14028189623596    1.48888241260380    1.26563597784792
O          -0.77444053525262    2.18264250484889    0.66212082973471
H          -1.35794956663029    2.93848666485901    0.75056818788111
O           1.61282555773844    0.98984146662945    1.45413690789530
H           1.07905069886748    0.17762827916979    1.59330600057896
H           0.95143733625132    1.69096571199791    1.35515870105697
O           1.01260752069851   -2.08041923369069   -0.88734633625944
H           1.29642114865415   -2.97616309677521   -0.70102785791999
H           0.56625641755832   -1.75924316440005   -0.05805886092600
O          -1.12731859720981   -0.81340055490741   -2.25712590977318
H          -1.64605436229885   -0.80589714986408   -1.42840328623912
H          -0.39964621318548   -1.42227566674353   -2.07625267927494
O          -0.04357153059686    1.56199543740741   -1.92509195357085
H          -0.54939434992412    0.74890162170723   -2.18630003724066
H          -0.41849582476764    1.83749591261099   -1.06859325995093
H           1.27015658783453    0.95015193208768   -1.52219540972403
N           2.09936706126060    0.41274494805370   -1.06119480210463
H           2.98916350556042    0.63460060705572   -1.49112741091119
H           1.88127925189456   -0.59857246959987   -1.12430104473303
H           2.06836897256914    0.68026200627654   -0.02855448191877
