    26
        -50.44835615  Gyration_radius:  2.64526366487 Dipole_moment: 5.183
 S           1.06259279259602    0.35773321377501   -1.01944571092705
O           1.58730415256024    1.20064883794546    0.02527524392677
O          -0.25806443090511    0.66542502676942   -1.46475237057404
O           1.13676122969654   -1.11533202297903   -0.54424169439796
O           2.02727550198019    0.34531960604671   -2.20817788368533
H           2.95870539528405    0.28065888395380   -1.77786252952628
H           0.49361599519207   -1.29791531175017    0.22657137426440
O          -0.44395578342669   -1.57065123807278    1.39058301730440
H          -0.39823548950099   -2.49888896672101    1.62747997764556
O          -0.27680132491450    1.18696206585673    2.00953236407317
H          -0.27497425628631    0.22543878240398    2.09890627258320
H           0.39343694978381    1.38299643197441    1.33499702851614
O          -2.43551615901791   -0.78015013581923   -2.06119709644594
H          -1.60764848634563   -0.28238608242260   -1.92257421801460
H          -3.06772206738109   -0.13891230691291   -2.39212746391409
O          -2.84053700399334    1.46125651120611    1.24659969948541
H          -1.88194930889556    1.49290834390386    1.46353486129822
H          -3.29830004279054    1.77269243672106    2.02879886105446
O          -2.80742125771466   -1.14336113144831    0.57565527875491
H          -2.94898260902604   -0.20120862422131    0.81493722286198
H          -2.74972110145693   -1.14650087854308   -0.40427926389157
H          -1.41012797924495   -1.41529188738956    1.06343490502966
N           4.12470538627119    0.27970353550387   -0.74400453497784
H           4.95762505304946    0.82243370539109   -0.92901334807555
H           4.39398694584168   -0.63253527398246   -0.40117343847960
H           3.56394787868425    0.74895647880449   -0.03745656388462
