    26
        -50.44768851  Gyration_radius:  2.67884286059 Dipole_moment: 3.498
 S           1.64384962765460    0.43010838594700   -0.74149275566376
O           0.42400748294045    0.46282422100100   -1.48096400489642
O           2.53972615714369   -0.66242018125799   -0.97981724924475
O           1.36659333797282    0.45484258450733    0.77534425818535
O           2.38944036424633    1.77343621392413   -0.98193032911122
H           3.26543759866311    1.66362036394409   -0.54145180721357
H           0.41294317457062    0.76328215620274    1.04598779419478
O          -0.93532531003254    1.09977983243549    1.53821256006312
H          -0.87523911497097    1.30168365387356    2.47409077046819
O           4.38451880928510    0.72840423623067    0.34785729707068
H           4.02123690395225   -0.04347347587204   -0.12069113650769
H           4.13772352035676    0.62636928720709    1.27044032824149
O          -2.03501203357307    1.58994282740810   -1.02397896746963
H          -1.80332168802008    1.74841931667598   -0.10032249936145
H          -1.22023676902620    1.24942856819356   -1.42307976633584
O          -3.61320456391703   -0.55299094399626   -0.68261626178192
H          -3.07666837164655    0.23340829812657   -0.93637606395508
H          -4.51719729659007   -0.24644722913077   -0.60348857243195
O          -1.94128196334127   -1.20590313865101    1.31889565197569
H          -1.38299577908008    0.16262182768058    1.47672921269185
H          -2.65317024920933   -1.08911971949085    0.65339071583285
H          -1.22711140484999   -1.68243141825230    0.83096701884853
N          -0.00283358536030   -2.17026277477461   -0.30932441605483
H          -0.14663969880970   -1.46769196248513   -1.02747627229080
H          -0.12462234204294   -3.07813571645641   -0.74266582934377
H           0.96938319368329   -2.08929524298313   -0.03623965588936
