    26
        -50.44835607  Gyration_radius:  2.64530576951 Dipole_moment: 5.183
 S           1.44706915589831   -0.14565596978848   -0.42950389907079
O           1.23131673575938    0.98804491545094    0.41034317242248
O           0.91594779519361   -0.04975460595463   -1.76592757607551
O           0.87165803302471   -1.42127341371888    0.23627820287139
O           2.94038906855244   -0.47796976210069   -0.48861849778448
H           3.01268018790801   -1.18771255554851   -1.22888625553434
H          -0.13141000411201   -1.34088769591354    0.40507456896009
O          -1.62945914190472   -1.23799979727262    0.63656122375351
H          -1.93896953392988   -2.02706768123570    1.08534546049582
O           0.48480348888747    1.33925694443958    2.96125204794602
H           0.54923440364699    2.28582405426882    3.10326050304198
H           0.83784691733249    1.18565680355046    2.06448109107326
O          -1.70576649793099    0.63047626242606   -1.48927944072597
H          -0.77059135294479    0.52338005808316   -1.72717534099710
H          -1.91316598599127   -0.12486513041059   -0.92450633552968
O          -2.25785683932773    2.56354897806586    0.29625889393224
H          -3.11272867150714    2.90658067925169    0.03194708433040
H          -1.97441337093709    1.95835307911898   -0.42509758953115
O          -2.01957899183189    0.70186798610012    2.22313550478999
H          -1.14688582199240    0.88178985556566    2.63503773254773
H          -2.16611157302548    1.45440824058851    1.60901661005145
H          -1.79659026838742   -0.46116624954965    1.29475172329169
N           2.68556416229451   -2.12522502200949   -2.42991740995020
H           3.32418327166819   -2.17790336642368   -3.21210694798451
H           1.86803250309702   -1.58195517362867   -2.69508884871852
H           2.39480234054346   -3.05975146336274   -2.17663568760081
