    26
        -50.44835617  Gyration_radius:  2.6454128733 Dipole_moment: 5.183
 S           1.32429261860504    0.06132364722956   -0.73496420317661
O           1.76041915928898    0.84008776977183    0.39669755684672
O           0.24543263976615    0.61030869878595   -1.49113564758872
O           0.96057042138249   -1.36130036878291   -0.23999324638900
O           2.51438018688839   -0.22864053869833   -1.65340764452092
H           3.28133948190116   -0.45970522369997   -1.00893900171411
H           0.13050984983085   -1.35563069480086    0.35335853142279
O          -1.09030141724174   -1.35124278976606    1.25777160381092
H          -1.30555541576037   -2.25149432729493    1.50889026353284
O          -0.47406804018047    1.34363185263000    1.86873397660579
H          -0.70351849578941    0.41066983791679    1.96614602967939
H           0.36191891867859    1.35187216930267    1.37506244085043
O          -1.99408968967042   -0.38026371052059   -2.58206097773407
H          -1.13337958287737   -0.05971430622874   -2.25222772908778
H          -2.37489407692308    0.35728701535520   -3.06312990247953
O          -2.66377235724768    2.10035102251830    0.50391239573345
H          -3.21247805852467    2.54995969143957    1.14821795057598
H          -1.79972635190616    1.94400755378539    0.94655508391919
O          -3.04447593296656   -0.49053717494041   -0.11080097416721
H          -3.02880153217841    0.47354543558074    0.07694712444373
H          -2.76052740876700   -0.56741789349956   -1.04732728106088
H          -1.89479186249678   -1.01795750728228    0.70423072464420
N           4.14250898256167   -0.63946409004434    0.27719481681810
H           4.11682429565954   -1.56412789222669    0.68537008303019
H           3.54842245564202   -0.01856339998477    0.82077345239807
H           5.09376123231703   -0.29698475655549    0.29412454359538
