    26
        -50.44835632  Gyration_radius:  2.64535168087 Dipole_moment: 5.186
 S           1.47936750905390    0.30605589878453   -0.10551136612237
O           1.15118567691585    1.49333175617878    0.64277779049663
O           0.84581299369081    0.17560725272706   -1.37778955778917
O           1.16818836584204   -0.93007366860843    0.77569978266585
O           2.99828592450367    0.19641281931957   -0.26228353656726
H           3.36832501914573    0.46251886526115    0.65927515207765
H           0.16594539713065   -1.04261212851167    0.93064551499251
O          -1.32320224890432   -1.20173849919119    1.18608212642749
H          -1.47666826061443   -1.99724316647156    1.69939842332670
O          -1.56831037736320    1.58362398875085    0.74233322177439
H          -1.65150427516328    0.70752896369282    1.13990847781353
H          -0.61328908420724    1.74057564300491    0.66555724584357
O          -0.33499033801066   -1.83307836362312   -2.70366248569895
H           0.17430777881936   -1.14146494094023   -2.24030222162571
H          -0.54537902314774   -1.46340230668728   -3.56358628719800
O          -2.87391411954424    1.05189725218276   -1.54742601298575
H          -2.33467306924173    1.35802752821198   -0.78425275968863
H          -3.73911710759455    1.44822600819120   -1.43474079697449
O          -2.44411505080885   -1.55837357937797   -1.06094600113658
H          -1.78590337117731   -1.36418379121357    0.27827519447042
H          -2.69077147199073   -0.64461835690577   -1.32398449499127
H          -1.72105845457116   -1.80868981582418   -1.67589865018092
N           3.48979664915909    1.00334445013694    2.11563154202721
H           2.60648120223357    1.50339401918336    2.05566417497638
H           4.22975390441323    1.65237142425161    2.34756188410908
H           3.42544583143959    0.30256276747551    2.84157361996028
