    26
        -50.46791783  Gyration_radius:  2.53729549784 Dipole_moment: 5.004
 S          -0.76962951190038    0.91256169675407    0.20033165254066
O          -0.93248003183287    2.22510527481300    1.00355661100230
O          -0.35964897046109    1.32667663729795   -1.14008066528609
O           0.28158766799084    0.11391984538912    0.84430097440811
O          -2.02186508085309    0.17567843045545    0.19643886290461
O           2.80112104786648   -0.75868598542937   -2.22190399672150
H           2.73668167833503   -0.06937939955892   -1.50754448754163
H           3.44585445623638   -0.43174086409668   -2.85072508321059
O          -1.32370649542915   -1.00249975521928    2.61169161694480
H          -0.59921403717126   -0.70821371694571    2.02012200434002
H          -2.11144802391657   -0.96876058347523    2.05699597925084
O           2.29592444764614    1.16253695340159   -0.49222937961244
H           1.64117614379874    1.70467100651764   -0.95069834096496
H           1.75250517455704    0.70303856868433    0.17839233314604
O          -1.08265158055865   -2.16164004464889   -0.52079809622975
H          -0.51864392347821   -2.36925972862703    0.22927166585152
H          -1.57454727905484   -1.34501732814118   -0.26118112254741
O          -1.32789240320853    1.50166910122991    3.47275689798614
H          -1.40459174201962    0.52448934332613    3.34274568107785
H          -0.51501033379354    1.64719472523667    3.96154045567582
H          -1.15046609809947    2.00987159687627    1.95365512213764
N           0.15027139977548   -0.85274611952351   -2.45703142729407
H          -0.25259704878683   -0.94856413038790   -3.38289350703285
H           1.19885856559810   -0.93942934665193   -2.47429141763303
H          -0.08516847226498    0.09771227134230   -2.02932157403671
H          -0.27441955897691   -1.54918844863917   -1.78310077916411
