    26
        -50.44835647  Gyration_radius:  2.64568062643 Dipole_moment: 5.191
 S           0.50848565391256   -1.11063153029698    0.89140815090949
O          -0.13418917937147   -1.98680264248904   -0.05544438833178
O          -0.34699154193671   -0.19266895913966    1.57154607039751
O           1.64077184990939   -0.34515944051407    0.16107483726763
O           1.30216884918746   -1.93804275540995    1.90589192606219
H           1.75239243283329   -2.66947455518208    1.34069096244404
H           1.27083119419072    0.31365910252393   -0.52457280376420
O           0.72660732513245    1.27874932828848   -1.56436479189972
H           1.45267560400836    1.75999941077372   -1.96571358036802
O          -0.19597239255404    2.40117325368541    2.23186989785903
H          -0.98327268905708    2.56234727166845    2.75591754818274
H          -0.19082657634992    1.44086838993128    2.05814804244762
O          -1.57301151636582   -0.36638930889962   -1.70414746793679
H          -0.80914117183816    0.16573650238006   -1.96080342355215
H          -1.22085805465907   -1.05342366306630   -1.11549778174549
O          -2.98730789530697    1.59842912165223   -0.53348281894729
H          -2.55206827284825    0.78755384289691   -0.87977358260641
H          -3.66277338120199    1.82860209731382   -1.17313353653993
O          -0.69292058840615    2.98935448622983   -0.34297047880801
H          -0.43702121730904    2.91445802982577    0.60176192445429
H           0.16098295879964    1.98883097651485   -1.07401760047126
H          -1.59110772563400    2.59438265568959   -0.39037468745420
N           2.13824311263255   -3.61840590374959    0.16669157565919
H           2.95054706355197   -3.33779584499638   -0.36580116677363
H           1.29886683959759   -3.38878182161840   -0.35923644519618
H           2.17488933905493   -4.61656806401844    0.32433361873437
