    26
        -50.47072342  Gyration_radius:  2.48653658766 Dipole_moment: 3.604
 S           0.04073475721386    0.37564456787646   -1.17026743148881
O           0.08881333382329    1.74032751348125   -0.66350203326956
O          -1.20374002212856   -0.28710969108090   -0.79610137346095
O           1.19953366917677   -0.38778930312475   -0.69214275354130
O           0.12173049057256    0.44567826029726   -2.71036530527090
H          -0.28398418849944   -0.42528397946138   -2.99559430752420
H           1.16420536099112   -0.54061117546628    0.90088708685974
O           1.11022248540340   -0.60143567143616    1.89032340353697
H           1.69212023549269   -1.32055312802706    2.14227001814734
O           1.28636787528113   -2.78411808083174   -1.79809324900685
H           1.30949078187500   -1.92124261274172   -1.32842499364063
H           2.07514740379921   -2.81222962455865   -2.34223890797328
O          -0.96245212810359   -1.86198259883756   -2.95121077210722
H          -0.22534867886020   -2.42905704191147   -2.64130256007003
H          -1.43412677150757   -1.59364265704244   -2.14743572645364
O           1.32946180959406    2.13990459355847    1.97442539611984
H           1.41372028633967    1.18508942589208    2.14384642500244
H           1.39457244903307    2.22707833515316    1.01439124884199
O          -1.63367208617191   -0.42976915507670    1.80108733574214
H          -0.73131402193172   -0.66919908635839    2.07428933428878
H          -1.57672979786913    1.13103101478575    1.77007210273058
H          -1.62309078572941   -0.53271565340306    0.82324524481749
N          -1.26499507826682    2.12693948837489    1.51565944540947
H          -0.36980214896571    2.33327664995718    2.02224190418262
H          -1.98293251119074    2.82806981725499    1.65445126628384
H          -0.93393272930634    2.06369983269772    0.50948919182791
