    26
        -50.45919444  Gyration_radius:  2.52668360231 Dipole_moment: 2.050
 S           1.31903315861468    0.46977772833699   -0.11000719819230
O           1.54016836016162   -0.60046602691863    0.85034568590217
O           0.21306370205020    1.33816283868362    0.32083912109055
O           1.07690630478682   -0.05531029334881   -1.44590026597177
O           2.57615007403701    1.37864471823382   -0.15125778253275
H           3.28401087962492    0.74263718242960   -0.43005292672774
H          -0.29972880657975   -0.85747905414730   -1.42657676079916
O          -1.17748819064665   -1.31606052419572   -1.32944463461482
H          -1.20456084421732   -1.99008714230085   -2.01049016233743
O          -1.29985998354691    0.56855098027304    2.16824866697080
H          -0.61286991885938    0.98419802102638    1.51858412218039
H          -2.22573694414611    0.85694364783867    1.80255775347457
O          -3.43413199838544    1.31756527710583    1.02824764226635
H          -3.02403967705954    1.33303465020949    0.11303510373282
H          -3.71037751839982    2.21583414825182    1.21727770599781
O          -2.04481334864996    1.31514953954919   -1.16239254644189
H          -1.16960779076039    1.50926759461230   -0.77636540612836
H          -1.98409181734264    0.38764567463543   -1.43780425220483
O          -0.76883268336427   -1.71541307341552    1.33288422382607
H          -1.18122225674414   -0.46720358384424    1.94070037911967
H          -1.10663424542713   -1.71903889469484    0.41542277195242
H           0.18598994678993   -1.47441006558772    1.24129698898527
N           3.81116063307862   -0.79729659524623   -0.86997624355782
H           3.37940144109788   -1.24496586928460   -0.06824671256868
H           4.68461865393640   -1.26313153221386   -1.08206337749926
H           3.17349287992933   -0.91654934593865   -1.64886190593314
