    26
        -50.47072350  Gyration_radius:  2.48637325973 Dipole_moment: 3.607
 S          -0.97369183380018    0.67716644360265    0.33955451702453
O          -0.42607715073731   -0.15865571030286    1.40224940122267
O          -1.76825818958094   -0.10621941737542   -0.59657384668487
O           0.09933791937288    1.38495312494940   -0.36923701592365
O          -1.90321284173851    1.73608540289302    0.97051224749068
H          -1.43074401692566    1.96734812061507    1.82348274867702
H           1.13698440241254    0.35034149021923   -1.01257794869098
O           1.74919968825713   -0.32471302778951   -1.40651542770669
H           2.56453851988874    0.14077305901958   -1.60087542284404
O           1.40936100607892    3.01443525373606    1.24299444154618
H           1.25077383649194    3.90647131800220    0.92965463293917
H           0.98632005511219    2.41580288404059    0.58839339525991
O          -0.35800202550197    1.99550079764896    2.99662266722615
H           0.39399457429714    2.46732178232810    2.58086316202619
H          -0.18795603415459    1.05390963974010    2.83894867250315
O          -0.35713347693316   -1.19290020584090   -2.94782172550441
H           0.51739034501423   -0.91754615888597   -2.62071476591066
H          -0.97154012776391   -0.53737549963758   -2.59291122068802
O           1.11436291894612   -2.12960748006939    0.56966254750258
H           0.63479689806147   -1.43307118223925    1.07133322651754
H          -0.14375657300042   -2.61380941025274   -0.21982844527845
H           1.61066506053055   -1.63562256202683   -0.10554070952494
N          -1.03660897401966   -2.58536177406860   -0.81619742161401
H          -1.63434109286613   -3.39440943416233   -0.69593105151608
H          -0.76318603820872   -2.40739631117977   -1.81317672988528
H          -1.51321682919647   -1.67342115295349   -0.55636994815040
