    26
        -50.47072343  Gyration_radius:  2.4864227223 Dipole_moment: 3.604
 S           1.05669378158383    0.56994585313588    0.26737497917112
O           0.83085896132618    0.36467842720730   -1.15910776345630
O           1.48147447845907   -0.66081326098952    0.92035919444952
O          -0.15008764293108    1.10029960900044    0.91294483062654
O           2.18538525484901    1.60777192957180    0.44642957184629
H           2.01840559015369    2.25146119013120   -0.30341827811765
H          -1.38296980461919    0.09539681131886    0.73292574356091
O          -2.11710101579129   -0.56132586967823    0.60881531813537
H          -2.93042367312848   -0.08158975882845    0.77498035217053
O           1.37336098427395    2.95628088032891   -1.57374697827465
H           0.55322298321682    3.34299368602826   -1.20120015270284
H           1.11630880463602    2.08171094473865   -1.90481319700846
O          -0.80020428974034    3.46257165655699   -0.07154358985486
H          -0.70063752135113    4.09846197853187    0.63895129894234
H          -0.63667088560508    2.57959276850939    0.32761524382638
O          -0.63020749160770   -2.35264309844550    2.07539837933150
H          -1.34870026119548   -1.81581377541470    1.69721157398229
H           0.09419726115358   -1.72970513050361    2.21927873614953
O          -0.98442600840275   -1.45991785320949   -1.73111089566608
H          -0.05744263168200   -2.44723000636080   -0.95251205896304
H          -1.64171254153826   -1.21163433064823   -1.05835438731061
H          -0.34054268108790   -0.71683115812617   -1.72251388455606
N           0.60711128956782   -2.83093661192041   -0.20095852666534
H           0.04722051697173   -3.03785715400379    0.66179559772249
H           1.18261806293993   -1.99563862472924    0.11059377629269
H           1.17426849955826   -3.60922908220781   -0.51539490361560
