    26
        -50.44835636  Gyration_radius:  2.64566146759 Dipole_moment: 5.185
 S           1.02043608084217    0.45580005800941   -1.02203180278867
O           1.41619201435483    1.39843364754819   -0.00604496572010
O          -0.32348486165853    0.56994903819402   -1.48890099453232
O           1.28180001551592   -0.97621785708945   -0.49075912986475
O           1.99335856735109    0.52760473719152   -2.20184924145103
H           2.91966960351241    0.60439593207932   -1.76252371881626
H           0.65737196059094   -1.21419036458172    0.28039405933020
O          -0.25240042139923   -1.56594395053410    1.44507401292092
H          -0.08837988085063   -2.47089078710268    1.71715926787538
O          -0.45737972582454    1.21056317725365    1.96023287404545
H          -0.33036330382875    0.26156917949657    2.08591784367161
H           0.19063582094725    1.46872220279872    1.28487544616995
O          -3.02474162187356    1.11663539342293    1.16664028748785
H          -2.08149357443280    1.28230054549818    1.38968808704869
H          -3.52933189285664    1.39319893081580    1.93296824138369
O          -2.28651011169076   -1.16767632655770   -2.05007501158600
H          -1.53207596468774   -0.56178559262080   -1.92322388784239
H          -2.99289154793740   -0.62581463692790   -2.40753442816641
O          -2.64064720810371   -1.48358784906390    0.59518060085349
H          -1.22614566503433   -1.55129192485123    1.10412087947098
H          -2.90793619383916   -0.56032119661822    0.79793954748551
H          -2.57036931072854   -1.51406774996845   -0.38346803981114
N           4.06290204485035    0.79924878142843   -0.72166543204445
H           4.45043846622921   -0.05399446580328   -0.34224385480396
H           3.43544367007811    1.21378031306492   -0.03732117162405
H           4.81590303049199    1.44358078493404   -0.92254946869841
