    26
        -50.47072338  Gyration_radius:  2.48635847609 Dipole_moment: 3.603
 S           0.00319623671857   -1.03491021252019   -0.66477997652264
O          -1.08217277398658   -1.50810908548487    0.18352300258498
O           1.22213130952878   -0.81317210211907    0.10524512032032
O          -0.39583152136560    0.18943757615422   -1.36914480484017
O           0.27710123747704   -2.12365078004180   -1.72435608152983
H           1.21984545649405   -1.93097221941906   -2.00473015931898
H          -0.65785799148745    1.38382951758325   -0.33633738604211
O          -0.82164914738298    2.09295904034203    0.33892522547990
H          -0.79562343489336    2.92335391796285   -0.13958657545127
O           2.65515330784302   -1.25708912394527   -2.11530663382188
H           2.60127608476881   -1.03244999609015   -1.17338679924043
H           2.45556290843830   -0.42378279836953   -2.59150648162148
O           1.44615910344572    0.93059983911504   -3.10985671091028
H           1.05408826826806    0.85406985006773   -3.98133316155428
H           0.72779818635686    0.73287197848797   -2.46910359700006
O          -2.85792734207109    0.53483041575384    1.33717449410234
H          -2.30865973174672    1.27423853673183    1.02250704250294
H          -2.72633763619452   -0.16579565385662    0.68501937489457
O           0.97907680170064    0.93374478808970    2.06505792721178
H           1.28170751966227    0.31841294657094    1.36035449917860
H           0.45145725853051    1.59804986834904    1.58906636927119
H          -0.11408071830639   -0.03245354808997    2.62337707582044
N          -0.94438297375011   -0.71337275080603    2.64941687977079
H          -1.82740667920310   -0.16426662005592    2.51028275769521
H          -0.95934386404813   -1.30875706240805    3.46891432253954
H          -0.88327988480610   -1.25761630200623    1.74056426648328
