    26
        -50.47037234  Gyration_radius:  2.48292283591 Dipole_moment: 2.685
 S           0.78705264149339   -1.12434708233557    0.37095599642301
O           1.68796044170696   -0.14800082784607   -0.21083494745217
O          -0.38894967471721   -1.32844362936316   -0.47553283438709
O           0.40552084467370   -0.81147249851261    1.74340353240378
O           1.57405073752080   -2.47524770529278    0.39318290603646
H           1.03755777316097   -3.05418634647522    0.97161613555236
H          -0.33626473713383    0.65447716451906    1.91327494551539
O          -0.79983386303599    1.52269584862104    1.93753308115188
H          -0.95977363478834    1.72086459993341    2.86143184918984
O           0.88775426689401    2.46018542427373   -0.06235951952443
H           0.29310760680410    2.40907687648074    0.70139762015339
H           1.34508107683261    1.60191882453111   -0.07522456483525
O          -0.03187802222697   -3.34775943787087    2.29900817980069
H          -0.08883711639287   -2.37216609087059    2.29487182684542
H           0.37377372123906   -3.59642771139315    3.13282791834010
O          -0.76877679127390    2.12052307090399   -2.10321365022244
H          -0.13967300518884    2.47870841248313   -1.42946770069079
H          -0.05205703277196    0.91982402034753   -2.50324300643240
O          -2.18626418329317    0.72685242211157   -0.34775397392028
H          -1.48892261014424    1.71838407394073   -1.55809463594857
H          -1.69963516383099   -0.11517451689512   -0.37173803889674
H          -1.94078709208085    1.13523017615440    0.49565627081006
N           0.49982915606887   -0.04826919372925   -2.54862042659889
H           0.67228310105926   -0.38549450600982   -3.48865673270202
H          -0.04290564564359   -0.72302778283449   -1.95262450614256
H           1.36058719505484    0.06127642516898   -1.98779570445369
