    26
        -50.47128645  Gyration_radius:  2.4443699256 Dipole_moment: 1.914
 S           0.97867066825881   -0.53758086791018   -1.52827369506976
O           0.72931720428936    0.84578529175280   -1.89992695264065
O          -0.20061673932556   -1.36829150996978   -1.69677890525471
O           1.57009932127602   -0.66255548748404   -0.21106479811459
O           2.05884637994210   -1.07513228416979   -2.54956078840272
H           1.64971988373189   -0.83062531923822   -3.37192762572833
H           0.49884587753569   -0.83723828779480    1.13611164181493
O          -0.18240525848811   -0.86406943807329    1.83328557566704
H          -0.78070344220376   -1.57377867977540    1.54547413861814
O           2.36525275706870    1.08908707897942    1.64922372203388
H           2.33039507631629    0.39933948257003    0.95811945092723
H           1.94607813080388    0.69240937628539    2.41843849296470
O          -1.49852148903795   -2.68514241483300    0.24547522498184
H          -1.29741000030088   -3.62137563238745    0.22588184221492
H          -1.00455236889091   -2.28275372358438   -0.49859949950540
O          -2.42946276553119   -0.05311013140805   -0.88564797009909
H          -2.82442806198642   -0.84426560428928   -0.50555659678006
H          -1.62329747070474   -0.36785193095813   -1.33164891760646
O          -1.59976065109262    1.31920680293581    1.25855778509569
H          -0.41964994983190    2.06249133796894    0.66971091591740
H          -2.05707313607984    0.94842570286429    0.47163956437695
H          -1.14761930799903    0.54069701393073    1.66114295800216
N           0.51075161395797    2.38708239819425    0.21325015480795
H           0.60453472006315    1.85308712346946   -0.69273162140963
H           1.29658402700745    2.07903884636738    0.83563027312379
H           0.52640503135703    3.38712087659857    0.04977563006197
