    26
        -50.47128655  Gyration_radius:  2.44440847738 Dipole_moment: 1.908
 S          -0.54393732050445    1.30711264376125    1.25687946953722
O          -0.78411010985974    2.04169907316945    0.02721604750740
O           0.86946315158515    1.25366026823351    1.59362850762300
O          -1.16722781348123   -0.00125127472638    1.26020760583106
O          -1.23749420504193    2.12872545851246    2.41564860595189
H          -0.68583966607066    2.90271357740773    2.42707992772591
H          -1.18437134281450   -0.88553058597081   -0.22651686647867
O          -1.08658773747632   -1.33148261907734   -1.08819503337827
H          -1.42560211673640   -0.68069309571446   -1.72539951485526
O          -1.86373432719999    1.05272940053409   -2.21962518334163
H          -1.54016459593158    1.46582335218000   -1.39247667841756
H          -2.77616134532400    1.32703327769772   -2.31748759668583
O           1.09794633772462    1.45785509466031   -1.83525443961323
H           0.59192379306843    1.75454080365525   -1.05811028178583
H           0.46632378133523    1.47694512125244   -2.56123946332473
O          -0.30706423461445   -2.47561066627462    1.80888331621155
H          -0.76466268419551   -1.61256616995951    1.82359623684174
H          -0.65772757308927   -2.93027607035981    1.03744301979283
O           1.54636524692465   -1.15609365551176   -1.46794608939786
H           1.56070133968759   -0.20044934474609   -1.69690771092388
H           1.86942719590922   -1.17577808714494    0.01102576063438
H           0.58702963994095   -1.38385909211110   -1.45178932527673
N           1.88841547304244   -1.11325545156712    1.09502863734643
H           2.81089944000226   -1.29900437954825    1.47126663324975
H           1.17135389314148   -1.78264609441725    1.46603007574691
H           1.56483578000458   -0.14034147392720    1.34701432948759
