    26
        -50.47128652  Gyration_radius:  2.44437203358 Dipole_moment: 1.908
 S           0.19938013506866   -0.62930832561258    1.77427063260658
O           1.05538815628636   -1.59325515652407    1.10195897315490
O          -1.20971640124044   -0.91846740471198    1.57368635527926
O           0.54288112144998    0.74113982672218    1.45128983891010
O           0.47919044031900   -0.80120323405672    3.32058969061442
H           0.35882333244995   -1.73975629525890    3.41057904291629
H          -0.25361772383114    1.47040739083159    0.09997628038347
O          -0.70248371690066    1.77075632799219   -0.71195950654291
H          -1.63982023811327    1.57716016525152   -0.54351281977202
O          -2.98979703468303    0.66935256815483    0.34803539752910
H          -3.55338846109865    1.11444225350811    0.98182014084161
H          -2.38595413013760    0.10087034532160    0.86935613939625
O          -1.68610834925858   -1.70405817485910   -0.97677289892702
H          -2.52686813545388   -1.23791400656562   -1.02398606526539
H          -1.40047282935862   -1.60780500581849   -0.05085689167405
O           2.43756669216092    1.88432971629871   -0.05431526295526
H           1.88586586045829    2.49746345292465   -0.54871530012360
H           1.87881155425974    1.58364140198271    0.68851528683897
O          -0.03703802401493   -0.16542575788279   -2.41944921724941
H          -0.30359648721830    0.66427154376655   -1.95789025039053
H           1.28267132166269   -0.45918178633042   -1.73830525096130
H          -0.64447544883079   -0.84663255360371   -2.05491277048220
N           2.12854662584411   -0.57808260462216   -1.06766027593369
H           2.44038471001956    0.37919861206952   -0.77389743251167
H           2.88057168987765   -1.10762734288915   -1.49319828664981
H           1.76325534028308   -1.06431598608854   -0.20464554903053
