    26
        -50.47128651  Gyration_radius:  2.44435199236 Dipole_moment: 1.909
 S           0.32239726533931    1.48760592280196   -1.12585287080504
O           0.36252105717643    0.42371714831304   -2.11379143082719
O           1.54071984425784    1.54368391321890   -0.33442373675093
O          -0.87274962711287    1.44843020396900   -0.30692705163764
O           0.26186410981635    2.84727013956109   -1.92973998990995
H           1.12787983731959    2.84983153243961   -2.32167729170150
H          -1.48533246998630   -0.10583029995596    0.14178344694546
O          -1.71466478112458   -1.01852650015571    0.39744696700979
H          -1.74099773446213   -1.49628426139655   -0.44848818391117
O          -1.29079743981022   -1.68422111153708   -2.23779568327022
H          -1.94530151319703   -1.57282170923367   -2.92810903210047
H          -0.72021102489799   -0.88867923089911   -2.26967648394572
O          -1.33218432003420    1.51465785632918    2.32933201141153
H          -1.28666521647075    1.72248150727280    1.37585753906631
H          -1.93948884644591    0.77175431736982    2.39344148778351
O           1.49343562933923   -1.81484438055830   -1.08512937753155
H           1.28688677019179   -0.92637714829643   -1.42586663935913
H           0.89036006624103   -2.40273892977556   -1.55092415356701
O           0.59145570192860   -1.86260596184057    1.43513035565371
H           1.00827529292248   -0.48470203542322    1.90358267125024
H          -0.34396985745333   -1.69439686373266    1.17214871769923
H           1.06383736740632   -1.97065253906853    0.58006446342245
N           1.16582323139221    0.57580352269542    2.07659516129309
H           1.40625716240283    1.00172382603847    1.14100559986897
H           1.90022041613748    0.74627674237221    2.75383943206703
H           0.25042908909049    0.98944433947696    2.37817407183634
