    26
        -50.45919442  Gyration_radius:  2.5266051793 Dipole_moment: 2.054
 S           1.39695474921161    0.08316698192931   -0.11823053081074
O           1.31105869596721   -1.11612627632816    0.70089942468290
O           0.59522348953895    1.17087679827826    0.46227411765533
O           0.99617022173110   -0.18096475693057   -1.49247896411196
O           2.86259102106635    0.59287182305698   -0.11494788742878
H           3.35235984579021   -0.17916853097663   -0.49911467796209
H          -0.55309217780375   -0.55373247808888   -1.49837429368309
O          -1.52456300211490   -0.75112415327276   -1.41237544625439
H          -1.75383540852942   -1.30107027928358   -2.16328344752107
O          -2.89275545344614    2.10592580359215    1.33485560524022
H          -2.89521605892611    3.01519286132862    1.63843280715963
H          -2.50707232824144    2.11642569756181    0.40907571878084
O          -1.59067985290227    1.97726890219428   -0.90516087054417
H          -1.80470274816591    1.11273001217796   -1.28786632579052
H          -0.69209410777159    1.86370984865866   -0.54135630752934
O          -1.05235781494522    0.64413550045061    2.27960394063391
H          -1.85965201039603    1.22756742710640    1.99338416673623
H          -0.28268217738285    0.92297261899509    1.64991974514951
O          -1.21490895263254   -1.57512815488917    1.16425880815378
H          -1.55131124175006   -1.36906916897937    0.26966857524858
H          -0.23237961259116   -1.60728647742448    1.05480894187911
H          -1.24104582850058   -0.34625079522194    1.92959477597394
N           3.40558214666503   -1.73782806268722   -1.13892846450912
H           2.87330979858010   -2.14035661879558   -0.37453727317025
H           4.10442427396148   -2.40310415452830   -1.44558272299019
H           2.75067453358706   -1.57163435792042   -1.89453940497050
