    26
        -50.47065698  Gyration_radius:  2.45362618481 Dipole_moment: 2.641
 S           0.76382820230456   -1.45622103817565   -0.97275999563924
O          -0.51263069023468   -1.18031837834000   -1.59291724707432
O           0.66257608326290   -2.18338864684784    0.28354849665508
O           1.57000118999222   -0.25202345886458   -0.82163614971076
O           1.54463873292459   -2.41990101036572   -1.95229838578888
H           2.06694928516151   -2.90568925385300   -1.32464032797812
H           0.63460636078657    1.18439704888681   -0.60653024827142
O           0.05543981071500    1.94231194036379   -0.40080715243383
H          -0.59761487499600    1.94530675847303   -1.12032025669279
O          -2.67355912529730   -0.51498258111353   -0.11371282661667
H          -1.92566706783030   -0.94395993596830   -0.56808408660521
H          -3.03941703772041    0.09379921929053   -0.76255404810873
O          -1.58247844413228    1.12375719598203   -2.46012422200625
H          -1.40844096484678    1.27121019801420   -3.39037260937594
H          -1.19263657476075    0.25315261123721   -2.24263925066905
O           2.54278128349828    1.00902286995403    1.32288545757402
H           2.20485540996797    1.89449847256820    1.15987558631924
H           2.40699259905943    0.53057873838484    0.48042311204123
O          -1.40002726828995    1.04037234068230    1.64208171092865
H          -0.90795657224882    1.55041617451400    0.95607462434270
H          -2.00907430444223    0.46478592736204    1.12627118783825
H          -0.31206490196129    0.12115887210099    2.13478101922358
N           0.56361208253216   -0.50250894485308    2.30168286960914
H           0.56688918092285   -0.90946453945310    3.22990870062837
H           1.40953738182656    0.09549841535939    2.13261369138378
H           0.56886021383099   -1.25180901529512    1.55925035043740
