    26
        -50.47037218  Gyration_radius:  2.48311034452 Dipole_moment: 2.684
 S           1.18162912705556    0.39452530665534   -0.68443291319982
O           0.86510490690233   -1.03016294168672   -0.57834910282789
O           1.21594300972817    1.02202986522761    0.62268696118472
O           0.29232008551227    1.06752984141906   -1.62421288599016
O           2.63589690399572    0.49853351853390   -1.24901040303453
H           2.54138955045197    0.26793661027283   -2.19531086077219
H          -1.27598333978570    1.15470225381803   -1.11342638791726
O          -2.19638338658777    1.14157543577665   -0.76410767394429
H          -2.72755004644019    1.65348448000661   -1.37584351617123
O          -1.34923297879410   -1.09106066061122    2.55009812600235
H           0.08444029077845   -1.24260200357096    2.35881773887933
H          -1.42783083779553   -0.10759104140997    2.48194449562423
O           1.67891683374431    0.21441164273828   -3.69355815297159
H           0.94097137883045    0.50992785682768   -3.12506574975211
H           1.85037703796621    0.92637256140075   -4.31436990600023
O          -1.20440962886785    1.45109631307850    1.81468854400098
H          -1.77440316199209    1.47664929707575    1.03122241633285
H          -0.29892423453262    1.46959427854052    1.46001021746719
O          -1.76923726142550   -1.51507357492591   -0.03375798506559
H          -0.85358603066516   -1.47727286988252   -0.36008951571322
H          -1.67520880570537   -1.41145982600157    1.67340391248791
H          -2.17337714719473   -0.68307922486699   -0.32186099161562
N           1.13813920928937   -1.21432217740666    1.99420200100811
H           1.78082917473141   -1.78196407523129    2.53444262085470
H           1.41733518849285   -0.22137137660400    1.93613509854128
H           1.10283415233711   -1.47240949914766    0.97574390260967
