    26
        -50.46804490  Gyration_radius:  2.44169281104 Dipole_moment: 2.595
 S           0.53062901345553    0.90930120499011   -1.62927497206878
O           1.14639340737049    1.11368270331988   -0.33475694603977
O          -0.58409617041428    1.80622451794273   -1.88889377048054
O           0.15509758914124   -0.47992261920531   -1.85016214590421
O           1.63964487008344    1.25912445806633   -2.70105528281174
H           1.11861322781041    1.31698576072224   -3.49443930335887
H           0.53265171978673   -1.62280075606094   -0.62437246171943
O           0.64560201865831   -2.22018358296055    0.13944664934512
H           1.57656483415661   -2.13468020101595    0.37803239517844
O          -0.48544280862509    1.44318812752969    1.79010511278521
H           0.21368538224217    1.53841084937792    1.11754892789431
H          -1.66122763284872    1.24200965306473    0.84015576422482
O          -2.10007629123309   -1.47204794345178   -0.78229247597662
H          -1.36764247982518   -1.20247295521657   -1.37129148805969
H          -1.70765532020345   -2.12146090830392   -0.19012352415151
O           2.73142188228125   -0.56921939946028    1.04293919079496
H           2.17613291207145    0.05703561478005    0.53589456461565
H           3.62428217328807   -0.22628856577496    0.99589778530618
O           0.26273877016572   -0.98284117670172    2.51878106926528
H           0.20980451507291   -1.50718583747905    1.69339455579067
H           1.20820840535959   -0.83497365286100    2.63106120414296
H          -0.29367515590464    0.56797067895522    2.21178091670951
N          -2.28197626726414    1.07646886855161   -0.03150077426432
H          -3.18371776872916    1.53323029398020    0.04916980149278
H          -2.38376080254614    0.04481825511516   -0.20776201598696
H          -1.72220004334039    1.46562662206284   -0.83828277674574
