    26
        -50.46482644  Gyration_radius:  2.44720606407 Dipole_moment: 2.901
 S           0.59979625089679   -0.65157373789203   -1.68874796504036
O           0.84618457902418   -1.85773760884072   -0.90417916703327
O           1.24104700642113    0.50524977281373   -1.09627926362454
O          -0.81072756264720   -0.46638823069686   -1.96348149521786
O           1.28332622292124   -0.86964507643197   -3.09967851755819
H           0.58533788163354   -1.31997254964049   -3.56195946786955
H          -1.71710273793323   -0.16485294192381   -0.66423563284300
O          -2.25590040760471   -0.06064611425043    0.16102964822827
H          -3.14370350468009    0.15202220200348   -0.13224722953762
O          -0.22423344547538    2.73737697469731   -1.26197522883912
H           0.25706664921970    1.88731382138355   -1.30823459643350
H           0.41637479383989    3.41874761529113   -1.47217041091853
O          -1.17093985406906   -2.32310849338675    1.18908251130635
H          -0.76418262902640   -2.56604214171276    0.34750585908935
H          -1.72637326818931   -1.54949918562898    0.98048550787233
O           1.48146812193066    1.19578229420074    1.51774203480098
H           1.61813076362186    1.13930446956822    0.55602022232715
H           1.35294427543163   -0.29314445086781    1.74146943406233
O          -0.97139148554022    2.11527566030729    1.29041108253419
H           0.58052935603694    1.60732732604143    1.60484800565995
H          -0.81662064246093    2.54921875304867    0.43044296988083
H          -1.50124263495247    1.33226691854332    1.06705114325624
N           1.25810621777774   -1.37070719085747    1.63650832895758
H           1.95637885541399   -1.87049822653178    2.17502438053859
H           1.33792524150904   -1.57585603229740    0.60432025847902
H           0.28780195691089   -1.70021381693136    1.85124760791961
