    26
        -50.46862859  Gyration_radius:  2.47481243971 Dipole_moment: 4.024
 S           1.70797996060149   -1.33071843071063    0.59715902444203
O           1.89341183538907   -0.83863570747783   -0.74058211256463
O           0.29141750572243   -1.63992894544808    0.85624051492321
O           2.27278155147555   -0.50428315929343    1.64374860180981
O           2.46706125722324   -2.72207063380429    0.69941957761562
H           2.66099780760288   -2.75736676202518    1.63018365130139
H           1.65385371781085    0.94260993158067    1.30780419541586
O           1.18509758946526    1.79847824666032    1.14841727927316
H           1.82921469599537    2.48884076484425    1.31528612376149
O          -2.60552540165797    0.80984371822311    0.04597032547554
H          -2.04838263030514    0.67686433396837    0.86965521866714
H          -3.48581555408000    1.03552436304324    0.34687204407805
O           0.36471959645296    0.10947345744760   -2.70587983287328
H           1.13681355862989   -0.20665713458698   -2.20023789739785
H          -0.64392979301085   -0.70920805576724   -1.94601733741779
O          -1.00541948869632    0.38535222767592    2.04742385758030
H          -0.55046830042149   -0.43485091961018    1.77074383556940
H          -0.32710608067744    1.07371089960478    1.97056197083638
O          -0.36317096743319    2.13085094757841   -1.12965648988379
H          -1.23158493299340    1.86143593951441   -0.80131658636651
H           0.24111491639459    2.05372486966262   -0.37151067112156
H           0.16388829399208    0.99307228919274   -2.31756989164105
N          -1.27493364011561   -1.20602886156935   -1.20591621118788
H          -0.63650366251553   -1.47038789562620   -0.40199056450949
H          -1.73616670314951   -2.02447366757622   -1.58552785941117
H          -1.95934509170335   -0.51517180549933   -0.84328078639290
