    26
        -50.46804515  Gyration_radius:  2.4415919801 Dipole_moment: 2.588
 S          -0.62723490789305    1.50736271091577    1.04697533589640
O          -1.05006956535846    0.13618623505330    1.24115873867219
O          -1.45934262233375    2.24276521464361    0.10822013125852
O           0.78243357341825    1.60765468193211    0.69685743305890
O          -0.80160428397393    2.22099226922951    2.44750936609752
H          -0.71205729761078    3.13534569932252    2.20205094067773
H           1.70139964644904    0.15708165335419    0.62485474301434
O           2.16081824238159   -0.69001560934216    0.46918069803521
H           2.02876923021790   -1.18999010102887    1.28378025425103
O          -1.72032445047738   -1.29350995111942   -0.94835758281889
H          -1.70678715715591   -0.86595307212195   -0.07250691880611
H          -1.35402361740007   -0.06978665362440   -1.78149174141408
O           1.59645460246573    1.14935815781549   -1.82065709627270
H           1.42400271020419    1.51644037740267   -0.93098602317919
H           2.13532379839355    0.36824087228142   -1.65978141277383
O           0.36742919900679   -1.91684370166637    2.24860768590427
H          -0.16155372955182   -1.16866248927801    1.90480304957505
H           0.03224651096465   -2.09373913047350    3.12802600204235
O           0.54407812882942   -2.60003008433308   -0.57037042754999
H           0.37283009724741   -2.97407008491244    0.30091268531648
H          -0.92963701752884   -1.88946121276086   -0.93556186503132
H           1.20005414417104   -1.89541125871900   -0.39150808058199
N          -1.04022730265776    0.91308832356870   -2.10998020950523
H          -1.49733700495180    1.19226771928145   -2.97101332533872
H           0.00708508975660    0.94347495432140   -2.19902178827317
H          -1.29272601658589    1.55721449026272   -1.31170059224630
