    26
        -50.46277960  Gyration_radius:  2.44198874517 Dipole_moment: 2.175
 S           0.85748096634881    0.03439103793000    1.00455464711455
O          -0.43662680520928    0.56364907607196    1.43691232996293
O           1.25759791556723    0.62907928769154   -0.26356644627367
O           0.83514148897752   -1.42091838838863    0.92251228286284
O           1.87890522359177    0.45517466088623    2.09572108032094
H           2.72392908706011    0.08975305733411    1.73100262221847
H          -0.22107600319948   -1.95021966022344   -0.12245514806724
O          -0.91038162433721   -2.20778230276168   -0.79756936263954
H          -0.84689609173543   -3.15928281111036   -0.89231594033454
O          -1.20268833860394    2.81146036776154    0.38385935471349
H          -1.72304752538817    3.24228732941284    1.06491523629742
H          -0.76847748954187    2.03381211178449    0.81863698568149
O          -2.62811638630919   -0.50941773759098    0.44030460225189
H          -1.89560374512462   -0.16877300128219    1.00362348300377
H          -2.24801921883067   -1.29274100480962    0.00143047015123
O          -2.36816098941803    1.28832821210983   -1.29360012968374
H          -1.95328029237975    2.02560206278195   -0.71830171445707
H          -2.63543356045507    0.54615327250706   -0.59732143710233
O          -0.38438298704985    0.08174653636440   -2.19658865165058
H          -0.58182299309706   -0.84040957728179   -1.95229438831130
H          -1.53976068719255    0.83702546550395   -1.79980423094173
H           0.31649495908350    0.36619104053019   -1.55190761843098
N           3.60892794579031   -0.73330344963155    0.55347875664218
H           3.05492136175495   -1.58177886257013    0.58086097940842
H           4.57194976145382   -0.97172570553784    0.35171734557129
H           3.23842601821863   -0.16830103746090   -0.20380510831321
