    26
        -50.45209649  Gyration_radius:  2.57669456831 Dipole_moment: 6.623
 S           0.38602567779913    0.81429451165739   -0.67039794138055
O           1.10388211484446   -0.43167525860075   -0.55119723478827
O           0.63874657890053    1.74864360550829    0.37932626857506
O          -1.13429135197776    0.48459530325205   -0.74352658290597
O           0.63703194647915    1.45302489120836   -2.02432531548566
H           0.16658872524580    0.85556705981899   -2.72198057089317
H          -1.46062872119439    0.21893576497609    0.17972975602462
O          -1.79098910076806   -0.26870387107590    1.59675490484123
H          -2.41871975744221   -0.99298644321740    1.63277235643076
O          -0.62989326068147   -0.13302784984922   -3.50851111507778
H          -1.46074509207103   -0.15493139800808   -3.02544423938399
H          -0.16167027788440   -1.00308047172740   -3.31936849900174
O          -0.93891234227665    2.26041026747442    2.63085202782417
H          -1.51166641867185    1.49729488971657    2.49508435412319
H          -0.47587029447302    2.38504266535065    1.79081044345839
O           1.51988337374411    1.11770570155772    3.05200762441735
H           1.77476390833277    1.48901113392173    2.20020098753170
H           0.68144001074992    1.56897215961431    3.26403090166999
O           0.56827681555335   -1.13240134827231    2.01441657458667
H          -0.88474739619201   -0.65614079318574    1.86110000640878
H           0.92547614502089   -1.03295346410498    1.11639076998233
H           1.00094205205768   -0.41710156874046    2.54404239035348
N           0.69395779730396   -2.26449502829177   -2.69546530837843
H           0.25524606136612   -3.13456720645257   -2.42168713578449
H           0.99138318254369   -1.77969540641254   -1.84832515868128
H           1.52448962370959   -2.49173784609986   -3.22729027444657
