    26
        -50.46256838  Gyration_radius:  2.41368588251 Dipole_moment: 3.852
 S           0.89486948103047    0.83162814385296   -0.36425062796034
O           1.42689502584883    0.21778471657633    0.84406229045643
O          -0.15601990449470    1.79617173131025   -0.06769251585698
O           0.41079481378553   -0.20785043236606   -1.28155325805596
O           2.02612489772953    1.60628790075909   -1.08152420787622
H           2.71958245691786    0.90224473128995   -1.21102613893421
H          -0.10587924503705   -1.35223885520849   -0.18948010379484
O          -0.45730917890230   -1.92102061807363    0.52975009887951
H           0.23317144307649   -1.91461042191231    1.19794140130000
O          -0.32267917452915    1.04704203237457    2.66517920154309
H           0.40516003583197    0.71419327729433    2.09815147434888
H          -0.45726702951231    1.95283210663224    2.37482664851446
O          -2.04894250315441   -0.57036560563602   -2.12414980880546
H          -1.08368039686408   -0.41993101619067   -1.99531665569136
H          -2.20842336720907   -1.48359049058256   -1.87244874976138
O          -2.56860762215767    1.10676127889314   -0.26528391902000
H          -2.53202218950243    0.48190626092436   -1.06956077237460
H          -1.63047229657349    1.52001026341358   -0.23101634457467
O          -2.28880166580055   -0.38648567577605    1.67847430414498
H          -1.64814294467095    0.14346480946006    2.22532380476339
H          -2.56225638297163    0.44630369702501    0.63158085363550
H          -1.73437351346268   -1.10485112615015    1.28489201167083
N           3.40351405835259   -0.60403309159092   -1.03086108653473
H           2.98980490181477   -0.69090506600661   -0.10723731727889
H           4.37798544024876   -0.87291271607165   -0.98722186100002
H           2.91697487017417   -1.23783583426356   -1.65155873171723
