    26
        -50.46482769  Gyration_radius:  2.44753730988 Dipole_moment: 2.957
 S           1.07141803384513   -1.57705005741994   -0.04411958220646
O           0.33789243331092   -1.79676540359344   -1.28731296090025
O           0.17221426557045   -1.34884401477614    1.06907941379085
O           2.09210840576029   -0.55982761455252   -0.19460705691491
O           1.84782767691141   -2.91878140329931    0.27651479543489
H           2.62536998587982   -2.80191090238343   -0.25776313294069
H           1.52942746084932    0.92664135330019   -0.46272019045402
O           1.15441077711508    1.81139944698312   -0.70572244463280
H           1.89179919222111    2.42366985149539   -0.67733689484584
O          -2.14194986963576    0.06798911716668    1.16159556670419
H          -1.42836549476039   -0.55786943236558    1.37523482190527
H          -2.18568095258085   -0.24846367482875   -0.31583532243665
O           1.05210808125996    0.50186054248457    2.78947440600679
H           0.84050418879249    0.13710355510316    3.65026575668303
H           0.85066783808321   -0.20016921927157    2.13914931510894
O          -0.21029125318077    0.69901571318834   -2.76649602147147
H           0.26062625908856   -0.14043986256993   -2.68982485569643
H           0.24504331605841    1.29589018364498   -2.14421474977632
O          -0.59736179280397    2.18195912164379    1.40501707117212
H          -0.07928072124998    2.19606854723308    0.58337386871964
H          -1.71778280679811    0.95944398859496    1.27993110412247
H           0.00259575854974    1.77139734676959    2.05553787532964
N          -1.99882680132151   -0.61413785123902   -1.32188236375856
H          -1.18853293052341   -1.28657021761054   -1.24764911613358
H          -1.60857566964913    0.13266363981446   -1.94320739512793
H          -2.81736540082750   -1.05427274350773   -1.72648192768316
