    26
        -50.45920946  Gyration_radius:  2.45382132049 Dipole_moment: 2.432
 S          -0.10814825567870   -0.64037042801407   -1.59744349263315
O           1.28110445166159   -0.91247069597896   -1.34285467630845
O          -0.50604938785338    0.70234733085000   -1.18253255998699
O          -1.01696341382792   -1.63706124246829   -1.03348541566350
O          -0.31369124171800   -0.70116526207510   -3.16261321282799
H          -1.25639001693028   -0.61221193521863   -3.25944284578988
H          -0.24306691080385   -1.64815801549376    0.43858328262598
O           0.38917143688157   -1.45589940551931    1.16390025714407
H           1.23065669690505   -1.40114871595697    0.69681203790830
O           1.08696048809683    2.08236335117189    0.45039822749523
H           1.98591297712197    1.67001837472003    0.32112550626968
H           0.54316056692257    1.73907310623346   -0.29046290105198
O          -3.26161293861796   -1.36585271647763    0.37428103215054
H          -3.25564077274700   -2.07220359139756    1.02241222881292
H          -2.51025588855697   -1.54040055704994   -0.22766575632897
O          -2.29270307411572    1.09662391057569    0.76813327392938
H          -1.77303015157325    1.08870709937014   -0.06199146669281
H          -2.82287115730083    0.27179104051412    0.74010237769303
O          -0.22085058974291    0.84536617520940    2.14777892049994
H           0.41111232988576    1.46480394590505    1.51324619749274
H          -1.16956617898233    0.99034468625920    1.70852358118434
H           0.03246199025903   -0.10354003465523    1.89754401586849
N           3.28720915563119    0.71452090372018   -0.13948618588832
H           2.73559690745276    0.06186342574594   -0.69809050193521
H           3.83860538966164    0.17827315350548    0.51852334055592
H           3.92888759801455    1.18438608654698   -0.76529527457355
