    26
        -50.46797947  Gyration_radius:  2.4577480262 Dipole_moment: 2.699
 S          -0.45360116781439   -0.70764744549207    1.59137055512522
O          -0.71069402700645    0.73087734491213    1.58467900235718
O           0.71988394376754   -1.03201162970704    0.80681626261929
O          -1.62638932341503   -1.47308362943768    1.23659852588283
O          -0.10197836490504   -1.10323082563050    3.08509211961553
H          -0.94953121692628   -1.32735444499096    3.45538710154311
H          -1.61531012763371   -1.13970067935907   -0.45036690404718
O          -1.69711520460808   -0.64036944638842   -1.28854258302280
H          -2.47684200581918   -0.08170352026601   -1.12673083355135
O           2.97929220464498    0.35705162175717    0.85471375105927
H           3.67203379814589   -0.23579980868389    1.14960036129663
H           2.14005833443602   -0.14114266822902    0.94318409139630
O           2.34153750129647    0.85005735241591   -1.70941069094956
H           2.08309651176014   -0.06073707640352   -1.96344501153790
H           2.78929267627028    0.75777451971913   -0.84268512201457
O          -3.06304558824247    1.08818812318792    0.29800149507515
H          -3.74437710047851    0.61193644629902    0.77517409984112
H          -2.26234407939961    1.02670447379324    0.85432330635254
O           1.06626208905446   -1.52317981511560   -1.84007220408575
H           0.15727400097987   -1.52364603030519   -2.15336461130427
H           1.00002189727020   -1.52186372427347   -0.86923146740753
N          -0.04623257426681    1.44417823613139   -0.88571201226720
H          -0.10020846952698    1.35117248264592    0.15248551303224
H          -0.63662759783000    0.64912428173116   -1.24110121824052
H          -0.43622092705533    2.33487330687210   -1.17702488826430
H           0.97176476728375    1.30953256479769   -1.23973863849668
