    26
        -50.47165220  Gyration_radius:  2.41788021508 Dipole_moment: 3.348
 S          -0.79220497790227    0.08867750531005   -1.10048317671037
O           0.03662146850148    1.25476126321512   -0.78299032614402
O          -2.15725901565987    0.24090314290191   -0.63493676406342
O          -0.17858299792602   -1.12293625367859   -0.54714678536324
O          -0.82749862566583   -0.05965802028719   -2.64003709777253
H          -0.10837564624381    0.50445977524420   -3.03581528911554
H           0.98573471500960   -0.91849139459933    0.66027628181065
O           1.60818932588162   -0.75334700710182    1.40207076242487
H           2.44674534613589   -0.53983854460818    0.98392929366320
O           2.25935490288832   -0.01984526714132   -1.41682096197586
H           1.90297789378509   -0.90722902975483   -1.51790736098624
H           1.51721848326539    0.50955371805775   -1.05658764818131
O           0.14120083592600    1.45980747017951    1.88780626225517
H           0.80998064569843    0.74963931658706    1.96843338829911
H           0.09648020278695    1.62720030443767    0.92497656035133
O          -0.89290975344840   -2.35881684743293    1.73897476803985
H          -0.01599039680229   -2.33922623588076    2.13591184423909
H          -0.74712895617406   -2.14039857903849    0.79709919482590
O           1.16417408277265    1.42436119808702   -3.43462058120749
H           0.98872550565594    2.22596611148714   -2.93320380384289
H           1.85218556740215    0.94376521424151   -2.93351164896221
N          -2.04573349065672    0.02846798584506    1.94102138860952
H          -2.84995741675148    0.24737742826173    2.51782703603429
H          -1.22036297615450    0.68622863009647    2.10836124627003
H          -1.71491768637669   -0.96312293656694    2.06582151563915
H          -2.25866701595614    0.13174105217264    0.90155191185134
