    26
        -50.46564196  Gyration_radius:  2.42031166903 Dipole_moment: 2.443
 S           0.13084373989056    0.58995816292120    1.14750328037226
O          -0.26000239400475    1.64670506161436    0.22187061091963
O          -0.16240118132221    1.10505546003283    2.57493653583450
O          -0.70258971236157   -0.60611327549022    0.93924464371628
O           1.54001745619098    0.25439643555702    1.03349531758448
O           2.02325111707464   -0.61000596432373   -1.39396581164705
H           1.77542836577760    0.17246693075528   -1.91520534711647
H           2.03116718169910   -0.29900319957064   -0.45759401966735
O          -2.68601573889433    0.80042183933058   -0.50572394414701
H          -1.89449188209776    1.29014109494762   -0.20793381184459
H          -2.76074341072993    0.07027594610400    0.11561221898748
O          -1.48056705623733   -0.16630421345311   -2.64961727911221
H          -2.10048948017354    0.20834321165567   -1.97298721215926
H          -0.79157873837408    0.51314590316609   -2.76883981653076
O           0.59369496125345    1.57360445459540   -2.24739764721809
H           0.30356176663237    1.67233970552164   -1.30685311737783
H           0.76523131525144    2.46045515523656   -2.56714740515778
O          -0.20102574311780   -1.76798185694632   -1.22296600592905
H           0.78046420607988   -1.43156506199653   -1.36901754252682
H          -0.44542362939819   -1.38740256975219   -0.28919875924233
H          -0.79011769660725   -1.19045487057365   -1.90351970428777
N           0.90757768725633   -1.09007856080891    3.45338421321235
H           1.55834931176882   -0.94908013023563    2.68606310393008
H           0.27368356451922   -1.83316040585309    3.18937132185607
H           1.42006992845333   -1.37514001439162    4.27798890118259
H           0.17210606148233    0.34898077195387    3.13849728636891
