    26
        -50.47033137  Gyration_radius:  2.48162909449 Dipole_moment: 2.365
 S          -0.73332764060715   -1.86686089831276    0.49658483456554
O          -2.09192509777590   -1.60893958280009    0.07828213090875
O          -0.42897504565343   -1.28399015599251    1.79788713964147
O           0.25475908358697   -1.49701592087271   -0.50593854840391
O          -0.59640742275754   -3.43608012230739    0.66255987056288
H          -1.38915639745751   -3.66529278140305    1.13641827789387
H           1.62993062715348   -1.04030150008718    0.41475712446822
O           2.23232134258305   -0.70277697178249    1.10460780442327
H           1.81586423503646   -0.97455729548652    1.92739300501378
O          -2.34325722138753    0.94782104752053   -0.59853296932067
H          -2.46956646106301    0.00355181587382   -0.36739058167185
H          -1.79436101821759    0.92357358263547   -1.40001316938567
O           1.82626605446797    1.55391578406100   -1.91271857399534
H           2.46672569188749    0.84104872591601   -1.96290929714438
H           0.97234659932931    1.16931899998418   -2.17783358496649
O           1.71564822976998    1.90977855190647    0.75624347608267
H           2.09538068519634    1.02517090929933    0.95520761561828
H           1.77344067935908    1.98580382117804   -0.21932370624070
O          -0.46777509465738    0.12300755108933   -2.42081688426507
H          -0.20998637820096   -0.53072781301539   -1.72605171417083
H          -0.69007428770496   -0.38640627426519   -3.20150401447877
N          -0.72260476099616    1.32112117333404    1.44654675369757
H          -1.39483008681681    1.34496846875568    0.62439359368619
H           0.25771082586087    1.67097435510052    1.15504769865670
H          -1.08281794450169    1.86418124339068    2.22361351995870
H          -0.62532921640339    0.30871330621497    1.71349018877143
