    26
        -50.45812655  Gyration_radius:  2.53401614537 Dipole_moment: 4.583
 S          -1.67128373730120   -0.50872740413666   -0.03471752417805
O          -1.63109888702800    0.54412785071398   -1.05078769427978
O          -1.28424240643539   -0.01001047660430    1.26154081521080
O          -0.90358169948745   -1.67057081074837   -0.45543138098879
O          -3.17302255782507   -0.98732032464246    0.06737006527483
H          -3.28097928046344   -1.48625405885517   -0.73598734815129
H           0.69177928201452   -1.25109827667279   -0.80529257724662
O           1.64104883516912   -0.99487286567415   -0.79819088725821
H           2.11303846281680   -1.83417654060811   -0.82605268968947
O           1.18549359680907   -0.82419712801960    1.97532836037505
H           0.22642996677474   -0.73898701615248    1.82379788073793
H           1.57308614683060   -0.92844340103893    1.09157066700969
O          -0.72234450370208    2.81804533173661   -2.47398221913453
H          -1.29334957221525    3.31121837997376   -3.06394170076748
H          -1.24054186071051    2.06604109757023   -2.15343987879547
O           0.72775597389727    1.81541220494398    2.10091369824371
H          -0.21728324098812    1.65117122086689    2.20894247835461
H           1.13453515278332    0.94414200036177    2.30089354790481
O           1.06076965316019   -3.45278169688531    0.53455981110980
H           0.23870653883179   -3.07643107398453    0.19211476885550
H           1.16758769985067   -3.08791477828221    1.41849220746168
N           0.75771453897801    1.55675967320427   -0.51819344823070
H           1.42309980287984    0.80913045668444   -0.75725259904552
H          -0.20956506831759    1.16799839674424   -0.68642296192546
H           0.83172820536890    1.80291921487973    0.51863994494709
H           0.85451894834216    2.36482004465216   -1.13447135581697
