    26
        -50.47228125  Gyration_radius:  2.43731908522 Dipole_moment: 3.532
 S          -0.52525918071574   -1.33018062683017    0.21449396338516
O          -1.32964213150324   -0.45126619428394    1.03008212658958
O           0.79483655584217   -1.55648770178029    0.77526481915766
O          -0.40179765558998   -0.82439852070428   -1.17102397637781
O          -1.27552160651655   -2.69416489413773    0.12807320855610
H          -0.78401888554710   -3.18571498447192   -0.55682443354561
H           1.04106806960118    0.01698685096999   -1.02895418169132
O           1.88199535816403    0.45181359704948   -0.77051896043299
H           2.34920687475450   -0.24605030840302   -0.29900861905332
O          -1.22026045198395    1.57216531963887   -2.05748971893554
H          -1.04572637654098    0.64816598985755   -1.79192568171970
H          -0.46245003323066    1.84510420850567   -2.57787177351406
O          -1.52862821961741    2.16544457976644    0.55403312677352
H          -1.57281509091627    2.16019643583778   -0.42286754740604
H          -1.67646807897280    1.22963109602929    0.80209434275838
O           0.69398361056477   -0.00931381459927    2.88077449546028
H          -0.26048256668258   -0.04360847261313    3.00397299486323
H           0.85621876930880   -0.69077335601054    2.18634822064040
O           0.07377480151698   -3.24863790548135   -2.08811723146897
H          -0.46130141496512   -3.45497825479843   -2.85782810611807
H           0.03833616317586   -2.27929383366450   -1.97276941190566
N           0.98479303624794    2.01616330525248    1.20917621584651
H           0.94679311629764    1.29925603542171    1.99415628170084
H          -0.04043254699432    2.22718091417237    0.94859934815232
H           1.49307168342592    2.84991260854552    1.48062483058994
H           1.43072620088503    1.53284790673727    0.38750565769450
