    26
        -50.46824850  Gyration_radius:  2.38813762361 Dipole_moment: 4.294
 S           0.19450731435468   -1.21769645565733   -0.38989733436234
O          -0.76700291233669   -2.12545359798678    0.18014613137383
O           1.37004882930311   -1.84919023173555   -0.97408050940143
O          -0.40472398994344   -0.26948296773011   -1.34079211779149
O           0.77387263836394   -0.32621681802379    0.77126023012818
O          -0.20272754852047    2.27337861274164   -0.47057643908248
H          -0.69966988890919    2.29724850456542    0.35299961938870
H          -0.38195699829540    1.39320854108383   -0.85652162764693
O          -1.43148580748237   -1.79631561569087    2.74983164812177
H          -0.88046050691174   -2.36261182626452    3.29101765646193
H          -1.22594393563899   -2.02586934222927    1.82019008158791
O           2.37250436453608    1.78960308555787   -0.12055706666700
H           1.48125714658677    2.20929869815148   -0.20977363274256
H           2.24282834714286    1.10823204617229    0.55210804743868
O          -2.82798222519628   -0.23297806797770   -0.22282133175007
H          -2.05275995226159   -0.25642965472975   -0.81488569512186
H          -2.96018152402853   -1.14697068372205    0.04478530799907
O          -1.34454986621259    0.70966823943140    1.76770338889708
H          -2.02408724393456    0.50140700093018    1.07931873836252
H          -1.47900396042065    0.01859781572884    2.44079979497880
H          -0.02286811804985    0.12517116615159    1.20877279718706
N           2.08314147709849    0.24960413162760   -2.20789195921785
H           2.34301482862575    0.93970099798902   -1.42074469910200
H           2.76778061578203    0.22446093875927   -2.95657515008651
H           1.92918528044431   -0.72042523326367   -1.72973441293339
H           1.14726363590847    0.49006070610363   -2.54408145605683
