    26
        -50.46966698  Gyration_radius:  2.51719597362 Dipole_moment: 4.952
 S          -0.88790031957226   -0.70662694709729   -0.98798981803067
O          -1.75287813247489   -0.07271472512387   -0.01104010274403
O          -0.07283917303644   -1.77391149362934   -0.38584195328927
O          -0.04200176706591    0.25050525300614   -1.68301661335489
O          -1.82893309582321   -1.38172046369846   -2.03791803952263
H          -1.24819997685297   -1.97321590322403   -2.55272652885360
H           1.44093462903957    0.14514398200214   -1.00847891711561
O           2.19969510611426   -0.09334047665388   -0.42091246162497
H           2.14086481643131   -1.05147341884833   -0.35959118569582
O           0.03934076883609    3.11600613744972    1.47809340777784
H          -0.64758408558110    3.40039207881926    2.08298362724445
H          -0.42331257639707    2.95193895897415    0.60887482120009
O          -1.27655609039084    2.44775941756465   -0.67903656881348
H          -1.68289180048991    1.61486565877054   -0.36935723560499
H          -0.67662002881636    2.13741064524959   -1.36985736595049
O          -0.52258030135514   -1.04435785464721    2.10919767198223
H          -0.23127463101292   -1.59053301266553    1.35237317610048
H          -1.28921231820732   -0.59292262843014    1.71648512710193
O           0.10197095877763   -3.11627848543804   -2.63301102968390
H           0.24122990807010   -2.74402551845643   -1.73820304548643
H          -0.14171364903770   -4.03675033236829   -2.51336889914734
N           1.32590029380952    0.83045538977916    1.90030602930529
H           0.59066654540550    0.09096204068081    2.11983172806300
H           0.84831123882710    1.76501106763055    1.76844397586932
H           2.02377167446557    0.88802648644656    2.63410170924053
H           1.77181201633321    0.53939415390369    0.97965850103230
