    26
        -50.46906593  Gyration_radius:  2.46950524299 Dipole_moment: 4.253
 S           1.07235485424683   -1.83549605712392    0.45381262318114
O           0.87215476752276   -1.29296083109033   -0.89314206414440
O           0.04179729664798   -2.77487481440929    0.83030617410509
O           1.31449921942001   -0.78252861377877    1.41226709832813
O           2.41418940198221   -2.68379433501301    0.37453071511197
H           2.07135635416483   -3.54303210003637    0.15278647775819
H           1.41371451821623    0.80683994283857    1.38079603135805
O           1.44889490118903    1.79308845784682    1.28010906018307
H           1.97842941288353    2.11648190607828    2.00988487151673
O          -1.37269262097193    1.72078003594977    1.00412332597034
H          -1.55053741449686    0.77671014255632    1.15080380156746
H          -0.44233605063171    1.85529944377753    1.23325203020919
O          -1.74365304561455   -0.87009978094239   -1.57231522611573
H          -2.11866837915043   -0.96572948378392   -0.68555949304315
H          -0.82080953710103   -1.16075909943152   -1.47619248357100
O          -1.39210033434517    1.76199641301770   -1.65584435495547
H          -1.57037987421883    1.92339894776204   -0.69949588327849
H          -1.68082674615033    0.82863019554648   -1.80029532583490
O          -1.83982259301958   -1.01499385334892    1.21402833525189
H          -1.12705177890043   -1.68724773948164    1.11425321982498
H          -2.38628607502243   -1.30976075583096    1.94491087930745
N           1.11321051065824    1.28276783024052   -1.37010235595197
H           1.74276913941066    1.53559769192463   -2.12252080697816
H           0.06853948212563    1.56879916192572   -1.58513981732367
H           1.10117754019985    0.23623154547150   -1.22007560848205
H           1.39207706105033    1.71465574936392   -0.47518122407359
