    26
        -50.47073319  Gyration_radius:  2.43647405502 Dipole_moment: 4.201
 S          -0.76523252711123   -0.43147574794930   -1.58111724760657
O          -0.83603792812873   -1.64576425118164   -0.82165671687107
O           0.58981596038388    0.12534345942598   -1.64453202131229
O          -1.70930614650286    0.59380705468080   -1.15272816374147
O          -1.15593342337974   -0.78105385706461   -3.07129900137816
H          -1.30859892539550    0.08322058944617   -3.43775512559340
H          -2.03031319450296    0.01510038048257    0.42284268770701
O          -2.09430113291321   -0.30156614104915    1.34326009457627
H          -2.18133797166679   -1.25474266313813    1.26303042692382
O           2.76114264023455   -1.26968883933311   -0.91478348143956
H           1.99944865122809   -0.76691216996171   -1.26395061148018
H           2.99801260635639   -1.90541390625079   -1.59152664054121
O          -1.38883249298967    2.77860340094441    0.36038484428640
H          -1.61137115582097    2.10224869328740   -0.31019638284871
H          -1.93959409135889    2.56991094228850    1.11954339030698
O           0.39339874891213   -0.11686949637542    2.38761630966899
H           0.73131307417362   -0.98154977397934    2.03473529850845
H          -0.57146632595106   -0.14964002296724    2.22121219304571
O           1.07469005185680   -2.24858042687721    1.01687441347897
H           1.85872784804327   -2.00505431493096    0.49401677538638
H           0.33599919035631   -2.20730006958661    0.38439573480673
N           0.99590304575667    1.57946633436753    0.54647167122463
H           1.88923317651179    2.05357852298572    0.61754762528097
H           0.93517645730612    1.03334232012999   -0.34587068647147
H           0.83984225473542    0.88230067207393    1.37753836433951
H           0.18962160986857    2.24868930053094    0.54594623973349
