    26
        -50.45498471  Gyration_radius:  2.43155669108 Dipole_moment: 5.337
 S          -1.48097035817783   -1.08360700692242    0.50098083763313
O          -2.70916781835509   -0.65239190345587   -0.09604489491807
O          -0.75186186253177   -0.03738538709458    1.17352307570577
O          -0.57358795915630   -1.72297214152710   -0.57295586997956
O          -1.70672024473149   -2.24795100964793    1.46279992358168
H          -0.84128038964004   -2.28267090231671    2.00478278018064
H          -0.31064345647236   -1.03251089077808   -1.32145228827323
O           2.20009179869434    0.81570965013917   -0.70732716440674
H           2.98084466848344    1.28698661568800   -1.00086481419989
O           0.10730513058801    0.03208779672419   -2.20737718411948
H          -0.57647902248713    0.71391845960841   -2.02957259573694
H           0.93617610428956    0.33526801947616   -1.77624349016323
O          -2.00409771956427    1.52558424575840   -1.47395489937937
H          -2.33956891990723    0.81108514174780   -0.89297485868557
H          -2.67503525632580    1.64482171824033   -2.15011074514244
O           0.52028835637140   -1.91000300306802    2.63029824851839
H           1.21303905697785   -2.00001429854650    1.93349519565549
H           0.32265712828959   -0.96465870231122    2.64611703643805
O           2.04018557641325   -1.77283089702090    0.43324452819885
H           2.21719711536686   -0.86362604760821    0.14375224734631
H           1.31583289773509   -2.08042275174849   -0.12476272747869
N           0.37725195107971    2.42605832935852    0.30902448224726
H          -0.27540260206059    2.75363515032492   -0.39444226950264
H           1.59984189339487    1.48252689211673   -0.25630265790224
H           0.50517735452615    3.16979220959333    0.98360501406986
H          -0.09107344333024    1.65357071309850    0.78276311032541
