    26
        -50.47201653  Gyration_radius:  2.5166147795 Dipole_moment: 1.514
 S          -1.96625217300925   -0.11062055782300    0.33092986258194
O          -1.15315897322486   -0.31423487458437   -0.86819983327664
O          -1.53989019174306    1.05843354269245    1.07060939470260
O          -2.05933424945722   -1.31800250087250    1.12305408728932
O          -3.43237829162249    0.20283455622456   -0.17567691064935
H          -3.74104956667832   -0.66012431339315   -0.43014801374993
H          -0.57153666599638   -1.83237594092234    1.49674470602116
O           0.36997434555051   -2.06330107599041    1.69600643605086
H           0.34074404675144   -2.72591277844312    2.38826173773846
O           2.70152111209273   -0.50829827776573   -2.01145247555050
H           2.76116763893775   -0.65665515796103   -2.95573564999380
H           2.12046883339598   -1.22677760844614   -1.65822193144474
O           0.85119155220517   -2.15811681749286   -1.04341285249707
H           0.04805678078529   -1.61769799912364   -1.13788866901456
H           0.92183941249118   -2.31173494551103   -0.08927500567857
O          -0.68307133809996    3.16269188205794   -0.37241786438412
H          -1.07970043996778    2.44137903609992    0.15623042934858
H          -1.08895430387776    3.97251045468997   -0.06221112074683
O           0.98364068779458    0.59520094520047    1.92803821464546
H           0.04751792392796    0.86036574192427    1.88959336387361
H           0.96985878390234   -0.37681746323845    1.97408887081558
N           1.06653274602983    1.13523837229525   -0.66753757132116
H           0.18041769019889    0.60489647055040   -0.85736685029916
H           1.82858175951434    0.73470297037161   -1.25375080383192
H           0.86243843541034    2.12514044777697   -0.83040686853775
H           1.26137445456083    0.98727586157593    0.36014529777342
