    26
        -50.46698362  Gyration_radius:  2.53116738247 Dipole_moment: 5.269
 S           0.01412250556219   -0.89017716529575   -1.84293634606288
O          -0.60226448320402    0.37789257494061   -1.44360411513165
O          -0.08888913466587   -1.88578795353621   -0.79722854641630
O           1.36471417501039   -0.68341858299123   -2.32064987695378
O          -0.82551967508145   -1.42780858454473   -3.06537403036845
H          -0.52568808408500   -0.86015382217522   -3.76712169470999
H           2.43361240916473   -0.16030272358688   -1.17976577589290
O           3.03169436765062    0.13401636803302   -0.45394634008001
H           3.91834258887609    0.05386042009627   -0.80831597962859
O          -1.28782194028522    2.40536364678660    1.96403784687004
H          -1.91206261036142    1.82684970162419    1.44211969014079
H          -1.58299246058974    3.30545138025815    1.82291897258225
O          -1.93636574394232   -1.65562048617063    1.15010934755560
H          -1.38121773218637   -1.80540090891043    1.91824421269353
H          -1.37405723722791   -1.83989036857370    0.37477942120333
O          -2.64100085536224    0.83819522593290    0.36234322317348
H          -2.07656393034073    0.76847571297842   -0.42421913955286
H          -2.61559812672073   -0.05768583902497    0.75061038595316
O           1.43465663438836   -1.31156133489625    1.31298329570373
H           0.90261216126297   -1.70580001153005    0.59181662004673
H           2.29792345863014   -1.12970618579387    0.91470259308673
N           0.69756264863608    1.16523001146457    0.71297524432581
H           1.58450865552335    1.61398048779788    0.49582557882358
H           0.91674059068076    0.23551270222639    1.16667090783638
H           0.05903262149518    1.75171127813676    1.30867724824210
H           0.19451921719146    0.93677448674826   -0.18565273344966
