    26
        -50.46949226  Gyration_radius:  2.48108152626 Dipole_moment: 2.853
 S           0.57648696794661   -1.41083952567511   -0.19164362457801
O           1.15036982519446   -0.18624220689361   -0.76655192397567
O          -0.36263203921635   -2.03535112536631   -1.08872360373021
O          -0.02465386086715   -1.10291916802706    1.11548409152531
O           1.74450398982745   -2.40147101491671    0.06566895030461
H           2.26933658926196   -1.99732915022589    0.79684435889746
H          -1.64706146494671   -0.86078125202478    0.72022693147105
O          -2.44340389149139   -0.60431901449424    0.20670938760032
H          -2.55050989334517   -1.31344336020206   -0.43483625713761
O           1.29052743951034    1.11028552853142    1.52418296144505
H           1.61390606553186    0.99311223501348    0.61445360839009
H           0.65070401284792    0.36613964702127    1.59753041172736
O           2.78642755725043   -1.14896480284843    2.15277194618922
H           2.26736626501104   -1.54153818807974    2.85905576759669
H           2.47868900878775   -0.22772498752530    2.07071404170574
O          -1.32242198656369   -0.50681587586720   -3.08946263222114
H          -0.95357518722532   -1.10109428946633   -2.40536160738847
H          -1.21931859005021   -0.97720716837950   -3.91731588051841
O          -0.43825649939406    3.08069256515504    0.80965356764833
H           0.26053101420241    2.49263590943830    1.17168492949430
H          -1.02930473781600    3.27861670320702    1.53747910772297
N          -1.03092889479747    1.25137927632026   -1.08112491258136
H          -1.72780069952140    0.61171649128483   -0.60622262279291
H          -1.30268657640219    1.36211814382079   -2.05709627363921
H          -0.92917484462257    2.13589975955970   -0.54231351881401
H          -0.10711956888755    0.73344487060963   -1.06180719432473
