    26
        -50.45393426  Gyration_radius:  2.69825823981 Dipole_moment: 3.145
 S           2.59471970179288   -0.37016582402192    0.80364569597183
O           2.09046362966821   -1.40918825301097    1.65364353177971
O           2.40085149302749    0.98254171078747    1.31633571805720
O           2.05251120116719   -0.47742199505780   -0.56402673982763
O           4.16496739167191   -0.55807685786065    0.66945358230782
H           4.46707242893618    0.29053343707322    0.35721448022513
H           0.71734676601278   -1.27978772340982   -0.20489606593076
O          -0.13628114146421   -1.63493288169693    0.16309022073827
H           0.17723228947452   -2.14212686272676    0.92068683828601
O          -2.61063289270389    1.79775265618551    1.52697060960127
H          -3.19360733934741    1.81494196992219    2.28606643546358
H          -2.85245220980946    1.00929581753409    1.00178701019760
O           0.39357943119219    1.19110467065293   -1.89203399297357
H           1.16754904434457    0.66287048332427   -1.61854428991316
H          -0.24424720346149    0.54885505278058   -2.24540693040455
O          -1.22931615935496   -1.03748892202340   -2.33864258390625
H          -1.00657818063819   -1.57690142543618   -3.09846794283714
H          -0.83077206627985   -1.46438092881093   -1.56370530465384
O          -2.79235477020632   -0.49869263370002    0.05650909764019
H          -2.74646851111345   -0.38581075350067   -0.89887319930042
H          -2.06738703886599   -1.09863759716284    0.27368039681978
N          -0.11839803671515    1.15000891512892    0.70213511281831
H          -0.05050396433193    1.40218154224159   -0.32341328298853
H          -0.32696436229671    0.14078285075691    0.73689375669704
H           0.85220952091805    1.27066950358781    1.10408505433590
H          -0.87253905160296    1.67207402829298    1.17581277179818
