    26
        -50.45985450  Gyration_radius:  2.55109779843 Dipole_moment: 6.076
 S          -1.50062834853837    0.40216468472380   -0.02149614933089
O          -1.94505474202390    1.48262245938585    0.85038972185467
O          -0.84369078947183   -0.64686164394605    0.77748238187618
O          -0.60107489202658    0.87414239894630   -1.07193515490727
O          -2.74564709612327   -0.21979027796673   -0.68436317381217
H          -2.41588419656824   -0.62226072783552   -1.54639524792843
H           0.93337838699413    0.95439820718804   -0.69349137704258
O           1.90113313178906    0.99698231002489   -0.45891001898088
H           2.33972896739819    1.37059290221770   -1.22544832374901
O           0.26755678620365   -2.88004834026937   -2.26847484222874
H          -0.06310624715943   -3.72750583248018   -1.96802501687672
H           0.77600486818046   -2.50409435193332   -1.51167315839297
O          -1.53552584760684   -0.96729687825644   -2.80602678500075
H          -0.92924605958462   -1.73508708545607   -2.69183578944204
H          -0.99375620719695   -0.18783532874832   -2.61658499363592
O           1.81641691264397    2.21695479044476    1.91594413330516
H           1.61361861843066    3.12063032912029    1.66606392613108
H           1.96382371812140    1.72845659883489    1.07302055945337
O           1.39414874170009   -1.77636244425550   -0.11465064626390
H           1.88989139184799   -0.96331307114144   -0.27609523563202
H           0.54225813441857   -1.47047661086951    0.25608629127921
N          -0.35790393978729    0.91759571051302    2.74268989513469
H          -0.58633342739625    0.81086087048795    3.72456528978746
H           0.54988152891890    1.42695633099913    2.57997206013264
H          -0.34589338427864    0.00942028726844    2.21136806340515
H          -1.12409600888322    1.38915470299712    2.15782357086296
