    26
        -50.46810098  Gyration_radius:  2.50745301156 Dipole_moment: 3.291
 S          -0.93838389759661   -1.78974978188081   -0.36005973996413
O          -1.52993677821501   -0.78171806273130   -1.23419753315713
O          -0.42322760866826   -1.16657400110027    0.85443961583010
O           0.00052405157223   -2.66240163299548   -1.01127835924855
O          -2.15175203916536   -2.71095139373723    0.09741130490347
H          -1.77683789904030   -3.58282851324139    0.02770829109471
H           1.36358669021364   -1.56175709559054   -1.09246226771402
O           1.93632766471596   -0.77686518069709   -1.05060847113103
H           1.54805015730946   -0.12826595635438   -1.64908730561736
O          -2.84275565630324    1.05842175552460    0.21188490328450
H          -3.46697852427200    0.61629177915101    0.78829570138694
H          -2.48029842549566    0.36300973837838   -0.37447228985542
O           0.08139511343339    1.00315720970551   -2.25372309111320
H          -0.25123728703896    1.38691946871800   -3.06630743688116
H          -0.55311988558136    0.29030972661422   -2.00025711324968
O           1.87169906721402    2.03817151012339    2.02871563648700
H           2.68192156882662    2.46323953370723    1.74466011326775
H           2.06210690414388    1.06173917106084    2.03243448922148
O           2.16953484607397   -0.54941862887981    1.64824909901095
H           1.29324434554160   -0.94859321060894    1.73376996641166
H           2.35332643506035   -0.62126148154101    0.69246429650638
N          -0.18291073521861    1.43305799481295    0.45119043778277
H           0.06576323017987    1.53846661437076   -0.54534758839497
H          -1.14965857563912    1.75876350969285    0.59108303954574
H          -0.21297921764446    0.39579540223152    0.65583564472711
H           0.53259645558425    1.87304150528591    1.07965864686424
