    26
        -50.45484310  Gyration_radius:  2.63947750479 Dipole_moment: 5.519
 S          -1.50676101929937   -1.44119739799710    1.55231955069355
O          -2.38768461665075   -0.29618690300771    1.67639424406805
O          -0.09800255593958   -1.02471287742964    1.51484962745122
O          -1.85692140183512   -2.32450052767430    0.46386495804128
O          -1.63845824422608   -2.29289662320067    2.89025416491984
H          -2.47987210326693   -2.72888009709481    2.79334945440531
H          -1.00215957274341   -2.08043593648104   -0.96739325104145
O          -0.51189647906575    0.69398155518257   -2.06273465118266
H          -1.08545402907245    0.86575525442590   -2.80972425811190
O          -0.39297877037918   -1.81519297343619   -1.69101871864702
H           0.50520873648400   -1.91311619281954   -1.30848503581281
H          -0.49711029049272   -0.32529036197510   -1.94913533762370
O           1.40055841728074    3.02607414175223    0.71283553768880
H           2.01755813200530    2.96707472888761    1.44386935815998
H           1.76856659836116    2.48020696079142   -0.00688663225246
O           1.88086379160485   -1.50730830112964   -0.27233688874583
H           2.11206607474999   -0.58856944680170   -0.46365875435362
H           1.29820483513372   -1.47747279718616    0.50661054328283
O           2.03361209039975    1.21054337486543   -1.25824969768409
H           1.15141918114993    1.05355826984809   -1.65169983099027
H           2.65697064970338    1.23848125013218   -1.98566882775871
N          -0.67651455542320    1.30086205137696    0.57062840590123
H          -0.75867289206692    1.19405154572831   -0.46151005005019
H          -0.10819130468990    2.13803115749496    0.79662344493211
H          -1.60416200649237    1.23005971764039    1.01722844123505
H          -0.22018868524348    0.41708042827251    0.94967418352049
