    26
        -50.46824846  Gyration_radius:  2.38812346759 Dipole_moment: 4.292
 S           0.49026272090292    0.71631829880702   -0.95921940267805
O          -0.15653746485317    0.44583635615238   -2.21699122783815
O           1.75457201375289    1.43329326271101   -1.05580647439313
O          -0.39760484410790    1.37009357143391    0.01381909698597
O           0.87825503140545   -0.66093393989339   -0.30253361586263
O          -2.67004073759190    0.33450180472689   -0.92810224613769
H          -2.53575957148589    0.34000754777501   -1.88015840579479
H          -1.95411020950016    0.89392967592047   -0.57238426583769
O           1.79353396802481   -0.43904557687699    2.33234683269535
H           1.89298665441486   -0.88853739300368    1.48288528255581
H           0.81842862854823   -0.45507611366651    2.49806151503595
O          -0.83296170049063   -0.19051255841898    2.16760788551222
H          -0.79241779464540    0.43297055803153    1.41565725861308
H          -1.26755374600094   -0.97722608704956    1.82407574743286
O          -0.72889366919557   -2.09826146016783   -2.81122605135025
H          -0.01493772051649   -2.46652381520830   -3.33244983071876
H          -0.52577821834785   -1.14581411022018   -2.70754619631418
O          -1.37653619943440   -1.86965629046839   -0.20721719162651
H           0.01745190449176   -1.19313064769939   -0.22742258061448
H          -2.01549846527394   -1.13757851344227   -0.39393068394483
H          -1.27995633093715   -2.31632889338695   -1.06734835961529
N           1.80296657955275    2.00464071390884    1.41548764741967
H           2.42234184543827    2.71656859626061    1.78887304001056
H           1.91518547018798    1.04907572234206    1.90299940821299
H           0.81820832187644    2.27612965259474    1.47316620876628
H           1.94439352378171    1.82525961884410    0.34735659950941
