    26
        -50.47150683  Gyration_radius:  2.41385147653 Dipole_moment: 3.772
 S          -0.81559917826134   -1.20057713464666   -0.69583537210454
O          -2.02600809151299   -1.32191112593927    0.09671797992951
O           0.38605776870174   -1.40435798624589    0.11868096429550
O          -0.75249146297954    0.09432540643256   -1.38033975763921
O          -0.84797965254158   -2.31054988666943   -1.77424311187493
H           0.03758096797312   -2.27055043402481   -2.21327345452893
H          -1.04958085900417    1.41350214292514   -0.56220036028847
O          -1.19616729529400    2.22017458315754    0.00700161345591
H          -1.64406652214015    2.85755840638936   -0.55098914085726
O           1.47935151680573    1.94442319249650    0.92005205895987
H           0.61495338044842    2.25361570666251    0.61313377381777
H           1.88349917497711    1.48716438266873    0.16407449601384
O           1.89656140285376    0.20769939130767   -1.24882663444038
H           1.52925021238407   -0.43006148748948   -0.59563943399848
H           1.08979685437763    0.54929557703822   -1.66417497756418
O           0.69135044504904   -0.10744521189214    2.44023517404927
H           0.70776976961668   -0.76566086225660    1.71696845062318
H           1.13417916486042    0.68642096082559    2.05762440183134
O           1.62001269958879   -2.09780371874324   -2.66333806122208
H           1.91550462864233   -1.22864566819246   -2.31965575357112
H           2.12584217914713   -2.76097228964071   -2.18815713591468
N          -1.78481948941464    0.45071619311141    1.97269340341121
H          -1.99946151016841   -0.32900634993652    1.27522406330820
H          -2.47328830308687    0.49654466637763    2.71523859259995
H          -0.78141322093696    0.24021623896651    2.33746818176440
H          -1.74083459008030    1.32588528731918    1.42156005994271
