    26
        -50.47250307  Gyration_radius:  2.48717976211 Dipole_moment: 2.880
 S          -0.59571464919579   -0.94636648035091   -1.97319833411703
O          -1.72610844632082   -0.03011953173603   -1.88345881890636
O          -0.27159260610295   -1.53545539708405   -0.68807801219246
O           0.54384204490283   -0.34134156752959   -2.63575568031983
O          -1.06092246068556   -2.14306405990923   -2.90126415449319
H          -1.10574737733953   -1.71144969887660   -3.74754264081124
H           1.26656547192002    0.75261325233996   -1.72990297817741
O           1.74200034637426    1.38434223156536   -1.12903247106803
H           2.20272482468768    1.99790184008329   -1.70320058393649
O          -1.29217154487615   -1.32051745839112    1.80165707747006
H          -0.49693990696131   -0.98014462624462    2.25093836670934
H          -0.96737854324566   -1.66750795138610    0.95020252143582
O           0.27127021077581    2.09532990516719    1.06237600444131
H           0.59857746917087    1.45750119554058    1.72204779242473
H           0.81593481139797    1.94463634187557    0.26671205807390
O           1.06053779522282   -0.08975554257196    2.54176517768875
H           1.52856665557613   -0.46487557630938    1.74009237095771
H           1.63661873926702   -0.24716290863402    3.28997644473073
O           2.12946293402792   -0.95548350287685    0.32977918212160
H           1.32842518890135   -1.32435505331441   -0.09383376570692
H           2.31345454345144   -0.14498912083729   -0.16733772886795
N          -2.01134736731119    0.87290309564353    0.54532660654041
H          -1.96165287299659    0.54733345397116   -0.46347325579967
H          -1.17038194055052    1.49329439818975    0.73647033119367
H          -2.88425101043554    1.35321089285833    0.73016389856357
H          -1.89377229966522    0.00352187881337    1.14857060203982
