    26
        -50.46882325  Gyration_radius:  2.54699982895 Dipole_moment: 5.063
 S           0.08733857414868   -0.82747349411131   -1.14783847367039
O          -0.80081681238352   -1.16316286509922   -0.03750372419484
O           1.46953740482472   -1.16525373763475   -0.83251003563813
O          -0.04494355491095    0.59056083131281   -1.49794259895776
O          -0.31958658991492   -1.66802365705465   -2.37666168910787
H          -1.07564747840008   -1.14649802965988   -2.77828225250514
H           0.38151479849409    1.64297514844280   -0.40692175249754
O           0.70612472143592    2.25311989161749    0.31376353693595
H           0.59318133214021    3.14351567500170   -0.02202252345659
O          -3.31537300268999   -0.70970187340928   -0.72044834097634
H          -3.80996783177028   -1.51456473400011   -0.55912028670096
H          -2.41002289333926   -0.87250208135638   -0.37541968640876
O          -2.16393486690546   -0.01665385140454   -3.03687200477203
H          -1.54511592143980    0.62752393585306   -2.66070986379601
H          -2.80723201567707   -0.19992511090484   -2.32008824552467
O          -0.54960598492824    0.42592469579555    2.08669354072827
H          -0.30432402695286    1.25452855607036    1.65507669750982
H          -0.73194667296210   -0.20208640690126    1.35645487559743
O           1.62048013459142   -0.61596957382026    3.09698014466758
H           0.73534655492830   -0.20749352954307    2.88669555589903
H           1.48202714255108   -1.56399548171159    3.05329309989968
N           2.59364637666363    0.40102309896297    0.87020927557887
H           2.35168296850004   -0.01012462460612    1.82094873273153
H           2.06639762056266    1.28712616286615    0.74815318155630
H           3.59160029527997    0.53525419982652    0.75339614108196
H           2.19963974820241   -0.27812312493890    0.13067669611245
