    26
        -50.46995116  Gyration_radius:  2.48093012611 Dipole_moment: 2.700
 S          -1.34406844424571    0.96028475059202    1.11369660229813
O          -2.63372959665466    0.45932222399301    0.73995366818843
O          -0.70210042864047    1.74734994258200    0.05680141254244
O          -0.43962285574021   -0.09293866956301    1.58723892012622
O          -1.53434681968762    1.94463326214393    2.33327082575217
H          -0.65328831224339    2.24252668235793    2.56573138980799
H          -0.33760332121411   -1.49927351801433    0.79721671870893
O          -0.26976194922688   -2.33064967808855    0.26564861086914
H          -0.24494756795941   -3.04939722926483    0.89894126908723
O           3.10501613841352    0.31166985014533    0.11646952825307
H           3.84622695956526   -0.00220787924238    0.63548430368157
H           2.58193075269171    0.89725369517967    0.70283864315875
O           1.55488545893628   -1.23065063784937   -1.49912048709138
H           2.17259081152998   -0.69755617187967   -0.96012699409038
H           1.05644909823175   -1.78811852661053   -0.87720290880352
O           1.40520528229601    1.74946335912199    1.68377355738632
H           0.88921156267824    0.93144495381872    1.83000937336214
H           0.93562096142749    2.17123310701059    0.94876368139449
O          -2.38242994166072   -1.33443598900942   -1.22796288684425
H          -2.68991579511129   -0.72529327043020   -0.52584214263075
H          -1.78460205191918   -1.95484873935764   -0.77865574824851
N          -0.50277039924995    0.27305049252840   -2.11373119996916
H          -1.32189970081594   -0.38895756977007   -1.95571238334756
H          -0.54528744125425    0.72620534527417   -3.01922169103220
H          -0.55701467354975    0.97363426550357   -1.32916997423292
H           0.39625227340087   -0.29374404116808   -1.98909210831889
