    26
        -50.46580906  Gyration_radius:  2.52286966723 Dipole_moment: 0.661
 S           0.00909716850037   -1.73627552982880   -0.84197509600932
O          -0.74268073756018   -0.56804243621690   -1.27208229386385
O          -0.37920940126919   -2.16428549803339    0.49471920988504
O           1.43663942674774   -1.54875796263801   -0.98994986080549
O          -0.38701132366266   -2.93002673618954   -1.80317579402594
H           0.10431397280909   -2.74937357996396   -2.59901849277870
H           1.72981036930098   -0.29729512716446    0.06308907705997
O           1.75805538535058    0.33133366073648    0.81943350684144
H           2.06844152272916   -0.23311932570900    1.54787973615560
O          -2.44005116318414    1.21386617608403   -0.09889454863900
H          -2.08809729820130    0.57432240112046   -0.74108410387334
H          -2.06388703138402    2.08650033803965   -0.36120548928519
O          -1.06928736305220    3.36407228873382   -0.87047439509957
H          -1.34827633849337    3.87757466196736   -1.62939753179996
H          -0.31176850649268    2.80976716724092   -1.17698053310748
O           0.78366815536198    1.61818162877626   -1.63877877085395
H           1.46084301201319    1.51678398037395   -0.96331768103841
H           0.26001777472884    0.79321861647618   -1.61572908901846
O           1.73240812492358   -2.01472503981664    2.19037630794377
H           0.96639772336889   -2.20442399747112    1.61590441994701
H           2.41150176689475   -2.63917201289710    1.93091665658209
N          -0.78647873188375    0.19615748875707    1.61962672046314
H          -0.81988319828598   -0.80720956894085    1.32242675543058
H          -1.52381441406883    0.71724554708918    1.02327916007847
H          -0.94886667252917    0.29303413989723    2.61641464088248
H           0.18811776700880    0.50064873005118    1.35799746339150
