    26
        -50.46824837  Gyration_radius:  2.38804302808 Dipole_moment: 4.285
 S          -0.97571299098816    0.84799834052703    0.05231312164032
O          -1.47178232186888    1.17767067062654   -1.25868192130167
O          -0.87060025733805   -0.71934594376872    0.15585311606439
O           0.38889218190549    1.34187574728599    0.29011122609141
O          -1.85085028365514    1.21960407125962    1.15589938396917
O           1.16911149803752    1.27312818497371   -2.26147186355373
H           0.38476255910076    1.55918564930255   -2.73838968276411
H           0.98486488734087    1.48782541972860   -1.32766543941219
O           0.44190619063158   -1.61539649872777    2.45917339427786
H          -0.27966870902186   -1.76911998558159    1.83532399245292
H           1.22517241490432   -1.44308756670997    1.88006456048290
O           2.13008355808197   -0.68378131034721    0.65079223111362
H           2.11378796545603   -1.17906793086377   -0.17396980613457
H           1.60444638008322    0.12257782187009    0.47977227481309
O          -1.71523488161667   -0.80127406770506   -3.04157985408538
H          -2.61028773195061   -1.14076740293380   -3.01299562806857
H          -1.70320755655012   -0.01839877989263   -2.45326906040099
O           0.63922725452813   -1.29275502818328   -1.83040389909542
H           0.99594585351955   -0.40589375859710   -2.08616574600686
H          -0.27150714408183   -1.01530545334398   -0.60804625744553
H          -0.08778636595950   -1.43956402933903   -2.46174450427349
N          -0.03938007896676    0.91089076067447    2.90484980800326
H           0.69365887013015    1.38215201137153    2.36864399495042
H          -0.92820441439393    1.06529248982007    2.28912372273217
H           0.16363097310114   -0.14824536234053    2.88830098186582
H          -0.13126786039276    1.28380197090857    3.84416187404125
