    26
        -50.45800813  Gyration_radius:  2.69158872023 Dipole_moment: 4.908
 S          -2.33022139087635   -0.62753501707035   -0.45951647129732
O          -2.39287483498700   -0.20121901040870   -1.85514128706135
O          -1.57326307827562    0.28844591443063    0.36687528249532
O          -1.87151745696860   -2.00350187503962   -0.35456498968742
O          -3.81603871980783   -0.60232410486147    0.08632690570447
H          -4.25962631476455   -1.25303237897261   -0.44956534347451
H          -0.32263270326243   -2.07681562214698   -0.66254191735896
O           0.64744229775412   -2.02836944677149   -0.89089497926905
H           0.89834805631817   -2.91603378420230   -1.15196078711052
O           1.93442765847021    0.61944195574861    3.02914935292755
H           2.59048031278071    0.04337470236424    3.42383613536059
H           1.24478644466018    0.02252712620583    2.64968633503894
O           0.20962362361109    2.14384034389670   -0.51508105503504
H           1.04386739229010    2.10720794032878    0.01112315101585
H          -0.47733320198272    1.68381010105703   -0.00006444242017
O           2.49375013346786    2.06018750111260    0.86468641646077
H           2.31632815009858    1.52179690473671    1.67199341930807
H           2.70375454731134    2.94077932206181    1.17896868603703
O           0.26958130145951   -1.03809839199779    1.79862543919805
H          -0.49351820394441   -0.55768306349476    1.42698278069279
H           0.68751646526345   -1.45746599926364    1.03677443032091
N           0.12492861315304    0.26176602794312   -2.27341051284510
H           0.46540547435352    0.43392379833535   -3.21268881554474
H          -0.92865665047393    0.10299743414725   -2.25314431160873
H           0.55639133521077   -0.58237485753735   -1.85232258152454
H           0.27905072913894    1.11435448939847   -1.61413083032028
