    26
        -50.47460543  Gyration_radius:  2.38432740774 Dipole_moment: 3.133
 S          -0.75030258373284   -1.19131835931729    0.05547739835345
O          -1.77516357043142   -1.05123453130776    1.07123960213902
O           0.57140027632441   -1.39557881702205    0.64481518747211
O          -0.72990633441070   -0.02746048083253   -0.84515377884816
O          -1.09659363410103   -2.43253142359723   -0.79988725631281
H          -0.55781508696512   -2.30318368455265   -1.62671532120729
H          -1.61844988539928    1.37607405317022   -0.55900311458054
O          -2.13934683552204    2.13498113534241   -0.21475596591701
H          -3.03536206040753    2.00466484093321   -0.52886010495033
O           0.38283692530368   -1.60210107333767   -2.75083925629981
H           1.28434970193476   -1.56470491176141   -2.37673539614335
H          -0.01135175602442   -0.74342528173692   -2.54502967051509
O           1.59187819468888    1.38417786643051   -0.67099445193144
H           2.22615944241204    0.71460495794462   -0.95677829687334
H           0.71744181789298    0.98351951465983   -0.82361767064124
O           2.50813779444126   -1.28152557918329   -1.09672173855937
H           1.82404007564884   -1.35821794086111   -0.38567921478803
H           3.20119021769028   -1.90402134570895   -0.87249388851573
O           1.24509162016412    0.86268448608898    1.91256987423273
H           1.11976888877631   -0.07131033474971    1.65136769411094
H           1.51616944328049    1.29240100188216    1.06828867558370
N          -1.30856217806766    1.26007701261060    2.16227606671870
H          -1.59150207990415    0.27699382680460    1.87464550091969
H          -1.68874545919972    1.52325719927852    3.06452715079098
H          -0.22954210441841    1.24323071793375    2.15943339574476
H          -1.65582083995404    1.86994716088988    1.38862459000389
