    26
        -50.46791793  Gyration_radius:  2.53759012677 Dipole_moment: 5.006
 S           0.45155801383233   -1.03204968718000    0.44072076600821
O           1.40858328779650   -1.34252599928632   -0.60752799977621
O          -0.76386518939918   -0.45071745073617   -0.14423704612597
O           0.05040168834792   -2.32563236727496    1.18908332199394
O           1.00908266295802   -0.14956663547694    1.46391772789449
O          -0.68760077846383   -1.91324213286390   -2.33601222698518
H           0.27159238343093   -2.00861171432913   -2.35152442028239
H          -0.85539228101322   -1.27820540762713   -1.60805403270756
O          -1.42899264454528    0.99354713627606    1.95699543104179
H          -0.63490279300761    0.64449498638412    2.38170053569965
H          -1.45115826871286    0.49486458988887    1.11613585580062
O           1.16570590762617    0.86036460530013   -2.00328174967847
H           0.24939241385808    0.79693291822766   -2.28652702732814
H           1.36881195542103   -0.00633435121528   -1.57457757615106
O          -0.68078087258928    3.39437485470143    1.17353483035941
H          -1.09894023759829    2.53715888891997    1.45631566908130
H          -0.76223293560551    3.98984353505486    1.91975164522664
O          -1.25392607402814   -3.77229332631418   -0.53771486141027
H          -1.10711825856226   -3.22424876050659   -1.34755613439201
H          -0.40208300711575   -2.95143138994258    0.55642563287806
H          -2.18977325557006   -3.71072423157264   -0.33458075722012
N           1.48693012974657    2.12043747235737    0.29679221170010
H           1.38440626566051    1.21803693848201    0.85975639462606
H           1.37304950114059    1.80949651056357   -0.70820131006957
H           0.70177469038195    2.76047969476988    0.58190938192472
H           2.39547771601221    2.54555132339569    0.44675576788460
