    26
        -50.46861824  Gyration_radius:  2.49042717906 Dipole_moment: 4.693
 S           0.66557412636524   -1.41413761550355   -0.21821372183465
O          -0.70717941418067   -0.86879788222448   -0.34150874529920
O           0.93482533160940   -1.82932525605897    1.13632338787051
O           1.62111330430517   -0.43345796262414   -0.71684555122125
O           0.72327135433380   -2.66592354847989   -1.13716277769695
H           0.48811535728715   -2.32469957397075   -2.03072304171261
H           2.07333452203120    0.40004175245116    0.65752151799057
O           2.04128106550726    0.77995453400103    1.56459930196377
H           2.15944543516661    0.02084849968540    2.14336172552688
O          -0.18370575755403   -1.47724804495525   -3.32960167868067
H          -1.11467226947847   -1.71207213309803   -3.33230340218520
H          -0.14261983644646   -0.52328733311603   -3.13382396018035
O          -0.63509944257640   -0.98867187877180    3.15007869635119
H          -0.07270785488673   -1.35260285207059    2.43515698499535
H          -0.82889158827699   -1.72919357026588    3.72557211198892
O          -0.21293915312105    1.00786756202812   -2.06295994498228
H           0.73862735605661    0.98064452313270   -1.88921268764745
H          -0.55629118264807    0.32151323738925   -1.44078896876527
O          -1.24444845475536    2.92562106063355   -0.41561674028300
H          -2.02869743705113    3.31689923606739   -0.80145133373533
H          -0.85006470564601    2.35319626438505   -1.10801825581034
N          -0.59356918058908    1.07087709272545    1.44525706314239
H          -0.95400182932083    1.93693533603687    1.00732670210443
H           0.45792143435663    1.11886364269330    1.57698939526552
H          -1.02001927978934    0.81696727138152    2.33796897684968
H          -0.75860190068574    0.26918761852761    0.77807495599021
