    26
        -50.47679059  Gyration_radius:  2.36809947837 Dipole_moment: 3.211
 S           0.73744262600218   -0.81873222353647    1.08837421837086
O           1.89472408680162   -0.07540612914167    1.54109668062243
O           0.92311809737891   -1.33599375163676   -0.26785026649066
O          -0.48028791320830    0.00656197324628    1.14112126570314
O           0.53124081485081   -2.02082781288673    2.03793497947680
H          -0.40046141523248   -2.30707016893671    1.84727338471301
H          -1.09880267185597    0.39574117682294   -0.39600097770680
O          -1.38331876642741    0.63994305953522   -1.30061524671842
H          -1.70501197187911   -0.18632804559108   -1.67889883956075
O           1.21836611157369    0.69661653502035   -1.97431247924099
H           0.24652570303618    0.83174884794435   -1.99183061574782
H           1.31290033478851   -0.15349969478234   -1.49947868721876
O          -0.62388879150135    2.67400172693375    0.85978479721691
H          -1.21434463568663    2.67742469734577    0.09981628017154
H          -0.65734025892990    1.75771522540469    1.19992431480147
O          -1.93292920566805   -2.27111419953804    1.26967631728790
H          -1.93252722936964   -1.31014006054854    1.37642799815459
H          -1.89519730176809   -2.41860855121894    0.30449750740836
O          -1.27004636417201   -2.22235469383777   -1.36778125535525
H          -1.08368178590207   -2.99881387893981   -1.89732045034463
H          -0.39942356771739   -1.91715339231044   -1.00982813023873
N           1.86763293112305    2.10542541346656    0.12226146626726
H           2.65314965104892    2.74594114184778    0.14403992755424
H           0.96568138716505    2.56125661475231    0.41548798434305
H           1.71559364833471    1.66248608770199   -0.84216134527378
H           2.01088649729707    1.28118011255102    0.77836119189172
