    26
        -50.47113443  Gyration_radius:  2.40844234169 Dipole_moment: 2.398
 S          -0.91502263622287   -0.77236664440211    0.73620968334829
O          -2.14383846190084   -0.12909874901339    0.35243454776046
O          -0.08504787454784    0.08800972319510    1.58194203645263
O          -0.15003192679843   -1.23317371551416   -0.42861434310509
O          -1.26829803720513   -2.04091760134204    1.57735262001542
H          -0.41211258696061   -2.48482401382657    1.69544069879320
H           1.03043838510390   -0.16825540278046   -1.13756923276311
O           1.72194369187859    0.51791377459370   -1.21322192083401
H           2.33158580964779    0.29566002735318   -0.47954686931333
O          -2.18321805133241    2.36965928286123   -0.84431421069030
H          -2.13811917629907    1.89448996125056   -1.69247616822176
H          -2.51554239001343    1.69339991616412   -0.23243980372799
O          -1.79882348093256    0.14677511263402   -2.35625810661631
H          -1.01574234999969   -0.34259474254475   -2.61516925597388
H          -2.00997097463661   -0.16056692587706   -1.45900497747382
O           2.56106085437280   -0.31297088807816    1.21213736067314
H           1.64792060580153   -0.13635022034094    1.50679582759814
H           2.66079584092013   -1.26636452597733    1.29496113912568
O           1.23175091082839   -2.89388957878371    1.00666887520591
H           0.85594767779328   -2.31352352531969    0.30651465275049
H           1.30884416031382   -3.77133264058063    0.62659919667147
N           0.26516779284455    2.24085149988442    0.11306152205270
H           0.90916326268323    1.73182885906224   -0.57101463416508
H           0.09810894150071    1.52622643788821    0.86743733422022
H           0.69587700913706    3.08089115508970    0.48416506847296
H          -0.68283700597755    2.44052342441308   -0.33209106022637
