    26
        -50.46861808  Gyration_radius:  2.49050387006 Dipole_moment: 4.695
 S           0.90096495905609    0.92849135628383   -0.90248430391123
O           0.17707142904032    0.92718382324178   -2.14970722780616
O           1.02104193499097   -0.44523240737817   -0.35889934750112
O           0.30377940684444    1.79557233821262    0.10488668699712
O           2.34988556165376    1.41940346056237   -1.17521180692252
H           2.79881175696231    1.35546301137684   -0.30077342522826
H          -1.32431801435855    1.75341035317013   -0.26310219559878
O          -2.18837134630436    1.43790549228802   -0.61255920993886
H          -2.10886362378352    1.53867188398107   -1.56583482086777
O          -1.30967780382530   -1.58824211285882    2.45883661639578
H          -1.06850806073828   -2.31844735678911    3.02965266672741
H          -0.57116599167295   -0.94396077543999    2.50520256445653
O           0.79426091102452    0.12622668027909    2.16104796358702
H           0.92981885615030   -0.23549355430024    1.25165596663738
H           0.41473085489660    0.99734256165904    1.97804097287843
O          -1.30134748983580   -1.20424455787691   -2.85612929829024
H          -1.14187481999292   -1.40374437118635   -3.77909719505919
H          -0.73422798709899   -0.43168055525082   -2.65303485744617
O           3.31366899921419    0.88860580776643    1.23975144057593
H           2.52856483401066    0.71562065271813    1.79090606582273
H           3.74975137357543    0.04196594263427    1.11822463802759
N          -1.53108578915445   -1.09864521118553   -0.19396094322372
H          -1.96085868196170   -0.13473216673976   -0.30032212630829
H          -1.84567986458003   -1.68049629705289   -0.97221736517503
H          -0.49051344604899   -0.95813932511527   -0.30647481730582
H          -1.70585797809248   -1.48280465291724    0.75160338845357
