    26
        -50.46485785  Gyration_radius:  2.5651475281 Dipole_moment: 4.112
 S          -0.67623351043063    0.31930982084700   -0.54245451202186
O          -0.75817818528229   -0.43797245250402   -1.89298229174575
O          -1.35868244991265   -0.48450067862057    0.46632994909863
O           0.73968812912607    0.48359632289165   -0.19932666054563
O          -1.32428308491925    1.61228784750909   -0.72341440321095
O           1.83224910707748    2.84325846185062    0.20135880747205
H           2.01341293575605    3.21889582321260   -0.66166538580749
H           1.53667803894005    1.91644676295910    0.03369392189804
O           0.81842184799432   -3.67583030822055   -0.47086942761150
H          -0.14176369166835   -3.45395924989550   -0.43658524949528
H           0.87769518852420   -4.55441188931318   -0.84894426417275
O          -1.72471231144243   -2.86906196670099   -0.63403362832963
H          -1.88640196828444   -2.57314635526632   -1.53374485642690
H          -1.68375471397955   -2.04538205908817   -0.10525576995758
O           1.55032984456652   -1.48810269223966   -1.80945802342112
H           0.13955174980059   -0.89978541953591   -2.00401456314378
H           1.70402662397094   -0.82573001325243   -1.11778158215328
H           1.40805034694735   -2.34159974492081   -1.33712761805221
O          -0.26094867232578    0.57967882319857    2.58365474165968
H          -0.76410134256272    0.08289768310644    1.89476398912198
H           0.65259781389491    0.30889482782151    2.45944510508401
H          -0.46111383644544    2.07717258406137    2.02842164279916
N          -0.55225269716305    2.89736456029270    1.36084004879072
H           0.41071038753713    3.16677335232468    1.05272065261698
H          -1.08084457275121    3.66871776790587    1.75216467087676
H          -1.01014097703446    2.47418817161291    0.48426470666696
