    26
        -50.47460345  Gyration_radius:  2.41958421675 Dipole_moment: 1.178
 S          -1.38626288075326   -1.42719195365989   -0.09912851405869
O          -1.04388128198627   -0.97364359459320   -1.44580167231946
O          -1.81238260175822   -0.34846851942778    0.75874191703319
O          -0.32599627647852   -2.23998765652564    0.47521521215127
O          -2.63143774783022   -2.39022662953248   -0.26332639740109
H          -2.23101227077379   -3.15998252535941   -0.65293550029594
H           0.11066833643624   -1.44797042735627    1.85494050104585
O           0.19575195402176   -0.79911760852847    2.58985568418718
H          -0.71075748563830   -0.50386637069328    2.72559490700869
O          -0.35645495925899    1.49379912984637   -1.98588103138019
H          -0.65859401006614    0.57266475084350   -1.79097788784314
H          -0.61536174285703    1.67032429282694   -2.89140278535359
O          -1.13850852388629    2.21937446405044    0.54192226429499
H          -1.56892360702671    1.35039279572071    0.67815811478753
H          -0.95283871029088    2.24576770468324   -0.41146040138562
O           1.54160214422601   -1.64970255420903   -1.41716810998975
H           0.61243804620619   -1.44218378125269   -1.62971878615003
H           1.47018837344473   -2.17514957179097   -0.61297966066752
O           2.14519991443588    0.90418785222653   -0.95125190743781
H           2.11378715738951   -0.06181997800197   -1.14104215643359
H           1.39934114244554    1.27262844948960   -1.45487060359609
N           1.19033197980042    1.38728172115878    1.44391819646121
H           0.92365823056874    0.49465083425990    1.94428179293539
H           0.27649422741994    1.86370427344994    1.16980322488361
H           1.75832258500095    1.98133121512952    2.03705528751471
H           1.69462800720709    1.16320369725010    0.52845829201102
