    26
        -50.47055670  Gyration_radius:  2.38825111384 Dipole_moment: 2.616
 S          -1.42625772715400   -0.18504957343181   -1.10790417970980
O          -1.12598125636401   -1.48670732206528   -0.56162275808398
O          -0.47028303207667    0.27917448787350   -2.09658749590579
O          -1.63943222701726    0.81537020399580   -0.06141279101560
O          -2.81275026591796   -0.32511422367376   -1.85366539613661
H          -2.92991760746487    0.54688352391938   -2.21486684709340
H          -0.15096390373000    1.36882175341145    0.45213879518563
O           0.78311686672844    1.57888331186656    0.66990092512471
H           1.00302284009265    2.26869909636596    0.02085329195133
O          -1.90200111163256   -0.82381277467633    1.95435179707948
H          -1.93108198428650   -1.59214911913826    1.37032348967988
H          -1.96379504508574   -0.07441002955467    1.32153576490698
O           0.86394482727741    2.63060818233609   -1.83223553627042
H           0.29533797863844    1.85528404183894   -2.00212473492335
H           1.61815478046532    2.53125206649220   -2.41643275131000
O           1.97788710009795   -0.25526760059251   -1.08767995722130
H           1.85548609194973    0.45054899558544   -0.43274610056959
H           1.17507667281993   -0.20738636265647   -1.63694271470512
O           1.24170913090523   -2.29869733012711    0.40435492950225
H           1.75240208358934   -1.71375595646156   -0.20412193067867
H           0.34676843936116   -2.28409895906374    0.01438328603909
N           0.70688866912929   -0.60836231494237    2.29299245924495
H           0.93235158539767    0.31133503292510    1.88076563577157
H           1.02671432253501   -1.37578930353550    1.58898919419919
H           1.12920810618082   -0.71853925755539    3.20778913636932
H          -0.35560533448098   -0.68772056914751    2.32996448856729
