    26
        -50.46999511  Gyration_radius:  2.40713846169 Dipole_moment: 2.781
 S          -0.42854578487705   -1.26261567973055    0.68395059571771
O          -1.70061846380421   -1.06557382004870    1.34338329729225
O           0.67301141919302   -0.60273547874787    1.38585466192552
O          -0.47793240863729   -0.81841460497207   -0.70962146308445
O          -0.13135278800729   -2.79470510190911    0.68149351526708
H           0.82347778548394   -2.85803518085011    0.49671654968662
H           0.33049974870837    0.67722835887380   -1.02285524772822
O           0.72504933202841    1.53970401187187   -1.26165800015655
H           1.53334890990241    1.29608762317386   -1.72498660810010
O           2.00504977068753   -0.93728128319649   -1.98973212343919
H           1.07896445257908   -1.07411323371817   -1.74526852704654
H           2.51229620116361   -1.45373529425790   -1.35531074490215
O          -2.07662149990277    1.15166618411782   -1.71669915852074
H          -1.31918123342833    1.67529291673645   -2.00823703853426
H          -1.71172276879146    0.26105986355556   -1.56700904839416
O           0.30857915304306    2.04928740274412    1.35346356025645
H           0.62034456803405    2.16391899538668    0.43465221396660
H           0.55185040589021    1.12606047548983    1.56693719287571
O           2.47711946367584   -2.23463546300699    0.51855529712679
H           3.07722492156660   -2.55333564490194    1.19572611073907
H           1.99130834328897   -1.46927453604399    0.90555967310793
N          -2.20160246361189    1.46130371172791    0.91857049279310
H          -2.31071478912031    1.48854405099332   -0.13202808999321
H          -2.96127907505067    1.93194785714715    1.39774940500758
H          -2.14746898874927    0.43633971469747    1.18015074677258
H          -1.24108424127526    1.86601417479217    1.17064274742402
