    26
        -50.47460346  Gyration_radius:  2.41953492154 Dipole_moment: 1.177
 S          -1.77977368502518   -0.78885165854066    0.42120404327324
O          -0.98210361308206   -1.74365969069415   -0.34604414392578
O          -1.92201595692086    0.48072285431019   -0.24903157359550
O          -1.30049274156222   -0.67176915028393    1.78922557560526
O          -3.23188952899624   -1.41008319468883    0.52184949938146
H          -3.09732948409631   -2.11688853261611    1.14386285755509
H           0.56619562133743   -1.58027274739765    2.10991997590573
O           1.02718396976365   -2.02892977409584    1.39287951511982
H           0.33755856879259   -2.12072133132825    0.70909184408921
O          -0.23829858139857    1.54034505810961   -2.02032309174689
H           0.15739992792574    0.72050596341056   -2.36023362210631
H          -1.00154987450915    1.23504220695375   -1.48813210915191
O          -0.74930672680190    1.88074643665697    1.81271435305581
H          -0.91536486700935    0.92284866539569    1.96483913572654
H          -1.46351144852953    2.13359195919226    1.21827637002742
O           0.74658281381684   -1.01539185855189   -2.17187132731350
H           0.79527504595301   -1.72209037472731   -2.81712996227663
H           0.06275105633703   -1.29388116737921   -1.51415685866124
O           2.48378936181636   -0.37780472486641   -0.10891212151128
H           2.10991260739267   -1.01270938937283    0.54481925436123
H           2.08974464217069   -0.64540133727979   -0.95665113652735
N           1.27961669031703    1.94433988254351    0.09186352574820
H           1.84707417803181    1.03875109861071    0.11071469680107
H           0.56737875127187    1.94804159593062    0.87357662741219
H           1.88509352728699    2.75528312960954    0.14720720758264
H           0.72607975570458    1.92823608109611   -0.81955853479536
