    26
        -50.46802619  Gyration_radius:  2.56444788179 Dipole_moment: 2.929
 S          -2.07182791021802    0.41802524348663   -0.27704759012149
O          -1.55411397197408    1.47131697006131   -1.11267770372848
O          -1.47485880766742    0.41122119067442    1.05600709083636
O          -1.99179382918524   -0.89988999707416   -0.89897827062709
O          -3.61355747699314    0.71871444724647   -0.07336773415957
H          -3.94857969950703   -0.03394245727226    0.40614596769484
H          -0.50328877995116   -0.77481094770824   -1.58623590617315
O           0.41615776442484   -0.56013783430255   -1.87029192793307
H           0.31451192844093    0.00043843819698   -2.64247863770879
O           2.90192497583826   -0.57853367699960    1.54603540882972
H           3.84193479818694   -0.65664226592836    1.38097734556918
H           2.47498165665953   -1.35224423206480    1.09688393628610
O           0.31426109080833    3.30724581084631   -0.60386926180240
H          -0.09343632599841    4.07792294673551   -0.20678280352787
H          -0.42310610490240    2.73345836624844   -0.90165501923488
O           1.58817915446599   -2.35833281986666    0.10028012153455
H           0.72492898024620   -2.50657101405045    0.54258838739048
H           1.36865160592876   -1.98639390592092   -0.76114377375239
O          -0.91325661520131   -2.30404967168072    1.11730513667258
H          -0.96354603508332   -1.53604991825073    1.69705159465521
H          -1.37514211925567   -2.01600990090154    0.30972397498433
N           1.02241332285609    0.89614726298041    0.35128397987683
H           1.07883593153920    1.90814437317881    0.13989617416467
H           0.95979311893720    0.37322232056853   -0.54992787885176
H           1.81822672288223    0.51942056752101    0.91469367004535
H           0.10170661472211    0.72833071427407    0.82558372907824
