    26
        -50.46176184  Gyration_radius:  2.51337312071 Dipole_moment: 4.190
 S          -1.80333111946572    1.23807065159896   -0.37490183893145
O          -0.40560686154616    1.65243356949714   -0.36618276647558
O          -2.37777295671701    1.26064935437609    0.95628794925657
O          -1.97841864911855   -0.04051991509306   -1.04464263807023
O          -2.59884659155918    2.29123762104274   -1.24482252527040
H          -2.44083007093307    1.99516054646539   -2.13712347659986
H          -1.36764882968000   -1.28996840046515   -0.32733677359422
O          -0.96881151099316   -2.04163342917957    0.19824731273771
H          -1.51956112182841   -2.80536965707006    0.01834589064873
O           1.36223797350171   -1.69834431016503   -1.34723684838948
H           0.57825788397468   -1.91978919982699   -0.82371353560085
H           1.09218115468331   -0.95384650997026   -1.92274749946516
O           0.76165507091413    0.67528118233437   -2.52762736682309
H           1.61081688919003    1.12148300242644   -2.56058180728669
H           0.29855369502863    1.03932760328790   -1.74397653726357
O           3.03023783861942   -0.44388315258403    0.26770109784979
H           3.64606567859583   -1.08506971051939    0.62223233500290
H           2.45107900162641   -0.93644545010970   -0.36980018642582
O           1.34010785575170    1.12299105432102    1.60798993484408
H           0.83016301827543    1.53243788097051    0.88258609356398
H           2.04109177110077    0.59439554375763    1.16280293238856
N          -0.71901721825847   -0.28493832715469    2.24702452216057
H          -1.46340544588123    0.36630219779435    1.86072466745107
H          -0.73766030763929   -1.13323045295047    1.64963068653698
H           0.22230579018736    0.24622913084327    2.09359924243709
H          -0.88384294783277   -0.50296082363799    3.22352114531324
