    26
        -50.47044858  Gyration_radius:  2.42970588384 Dipole_moment: 3.699
 S          -0.06490134462890    0.70549637201496    2.08363505011889
O          -0.89766626680023    1.31286835509059    1.05281003603095
O           1.15447720526012    1.42357445595104    2.32505761092755
O           0.13333928410720   -0.71693452478600    1.80847426138519
O          -0.89608367546510    0.77078860258564    3.43813502150266
H          -0.35019965429678    1.34267728296699    3.96786257533483
H          -0.82182496217190   -1.51497833819224    0.80827277996116
O          -1.31720195160752   -2.05747383518528    0.13604746348266
H          -1.63860896734096   -2.82561630131554    0.60993669202952
O          -2.32615472763970    0.33245728726239   -0.99610082398997
H          -2.27257127157285   -0.59587292283955   -0.73414186077834
H          -1.96616593250534    0.81763946138149   -0.23074723028093
O           1.14739958627936    1.94633566673617   -0.45551267880461
H           0.35363677885408    1.77639933228456    0.10134116310976
H           1.65280228028102    2.59737851269654    0.03602370607061
O           2.21528736399208   -0.49231257157149    0.16056500605056
H           1.63898421865076   -0.62896408600441    0.93688555206192
H           2.09357616877743    0.45063176671831   -0.06273495659607
O          -0.24125318915314    0.74208306787754   -2.57750872960959
H           0.27819120806407    1.37122624966479   -2.05552341661779
H          -1.12341633965763    0.69830575955635   -2.12939097297774
N           0.65498320385205   -1.52179673987860   -1.66542801292579
H           0.30537305217483   -0.62732081153954   -2.16237896709274
H           1.40010788276125   -1.19719422384144   -0.96499903937946
H          -0.13157189521841   -1.90717162820343   -1.10906177737023
H           1.01946197500461   -2.20222617943280   -2.32151845164899
