    26
        -50.46791787  Gyration_radius:  2.53733489477 Dipole_moment: 5.000
 S           0.20153157473295   -0.08096788015539    1.19056297055685
O           0.47214226472656    0.77660377512950    2.44987701201458
O           0.51624189940128    0.73437554653464    0.00995563591723
O           1.03747680498494   -1.26917572287032    1.21139723875637
O          -1.22434440970642   -0.39894243511235    1.23707625850574
O           0.83528137287386   -1.91891784831092   -1.31767893356675
H           0.98949736370981   -1.80419039685189   -0.34850263754085
H           1.25598770435240   -1.16197057557682   -1.73460051842250
O           3.09021130594283    0.16723205992581    0.01526638359502
H           2.16951520100989    0.46057244775462   -0.15124394398528
H           2.99275715555597   -0.70519909376049    0.41373062970578
O          -1.87420281814255    1.81625622304887   -0.23453192531571
H          -0.91533586569665    1.63561414653916   -0.29803915076450
H          -2.13118045412798    1.29182931184164    0.53476265301166
O          -2.84464616397389    0.43184760745060   -2.25424376795126
H          -3.77040876190859    0.65804501503323   -2.35324154327978
H          -2.47457548211387    1.06654415604446   -1.58350466724148
O           2.91766397277607    1.63625693305961    2.21162744486011
H           1.42166749817858    1.08470983379825    2.44616737292008
H           3.18908318758569    1.12565932661414    1.40957833211323
H           2.88674621620313    2.55853048084826    1.94846691954559
N          -1.77037804075372   -1.64278933582295   -0.97647246870975
H          -1.64533058616841   -1.19469153561034   -0.01461066662488
H          -2.30251518877030   -2.50395656609948   -0.91386646989437
H          -2.24168274211218   -0.93403286112539   -1.59527456124877
H          -0.78120302855025   -1.82924260229351   -1.30265757694788
