    26
        -50.45655102  Gyration_radius:  2.65959306475 Dipole_moment: 4.741
 S          -2.04166644990650   -1.79525424615204    0.39682759829041
O          -2.55999484675215   -0.42618942287194    0.30471649981528
O          -0.90852831131233   -1.88606699296593    1.28485327336274
O          -1.84128504221888   -2.38426330775024   -0.91425920087668
O          -3.20757463689250   -2.64861262203048    1.07530934607057
H          -3.81787731708159   -2.79682507986984    0.35831238618958
H          -0.77346510409915   -1.22830309534011   -1.28086877469812
O           2.32511719364083   -1.01334879992939   -0.63694381914447
H           2.46952838990039   -1.95789662177534   -0.70714601865264
O          -0.14526887884251   -0.47728244830890   -1.37571767328352
H           1.43079434542959   -0.84578301445223   -1.01368559184281
H          -0.53427586458068    0.15314096965253   -1.98431976946952
O           0.39760618379681    2.56828839925540   -1.32358388326857
H           0.51153602150396    3.48174203122955   -1.58751118183312
H           1.28488914080913    2.24616877870898   -1.04320122888598
O           1.11039489816256   -0.25207070161903    1.71705576361228
H           0.41911202221902   -0.94851049497921    1.75708986094425
H           1.67019870351002   -0.53778043896359    0.97070103454613
O           2.69106685145622    1.68136752821463   -0.24387033189686
H           2.80118535075847    0.77610618165069   -0.57245530902026
H           2.58700463042420    1.59147699500596    0.70743735513965
N          -0.77529948169470    1.36939923098197    0.82810283722700
H          -1.53892883718072    0.64978901510891    0.59201203052714
H          -0.47304814355278    1.85572113463282   -0.03821887923986
H          -1.12216391697528    2.02501571997131    1.51921510276843
H           0.04094309872646    0.79997130272525    1.21014857379268
