    26
        -50.47039475  Gyration_radius:  2.46624295835 Dipole_moment: 6.919
 S          -0.32164630805881   -1.19241001958732    0.78410604576491
O          -1.66863982589346   -0.59167764530463    0.78969857037809
O           0.58587413233889   -0.49611570375194    1.65986313280852
O           0.17476359599163   -1.26647725519021   -0.58805253725870
O          -0.46493948274847   -2.64958253529978    1.31565103036409
H          -1.21247446002249   -3.01532340786291    0.80239017148004
H           0.09061442031739   -0.02424360017503   -1.61109527869468
O           0.02049707551475    0.79357080237265   -2.16871191678165
H          -0.08569697616071    0.48827520385504   -3.07079489142907
O           2.37675061677792    1.67912370910616   -0.81843200602279
H           1.68707065692409    1.51066976095835   -1.47434882381964
H           2.72890030064139    0.79320562761798   -0.58593136420743
O           0.94814755793207    2.14056950798236    1.34214503686751
H           0.92185129347469    1.22484126273340    1.68389745912656
H           1.61138215010904    2.11247835700022    0.60168386663609
O          -2.76655966838171   -2.85325815636755    0.02428083279261
H          -3.51161827040931   -3.08579397986015    0.58310910225221
H          -2.57769670254540   -1.90747272391389    0.18688536560871
O           2.78159140308438   -0.87378305623592   -0.03408613822181
H           1.91200238412110   -1.16061550090321   -0.36389419606344
H           2.66394701749532   -0.82471931099620    0.91954675313719
N          -1.20974332253762    1.86659946245357   -0.00661728201651
H          -0.88853631836479    1.71318765857732   -0.97783738396019
H          -0.32396380875618    2.12656451085013    0.60106087845680
H          -1.94280448748936    2.56462791812351    0.04730150691442
H          -1.52907299335529    0.92775912381884    0.35818206588590
