    26
        -50.46798013  Gyration_radius:  2.45848428257 Dipole_moment: 2.758
 S           0.29478221782189    1.57781648691932   -0.81934045688916
O          -0.04326945018800    1.38331728465531    0.57562972419208
O          -0.49614058845784    0.70088425834466   -1.67993984508067
O           1.70938804991063    1.48547718322911   -1.09830771974401
O          -0.12787543062306    3.06488567028876   -1.16764100659594
H           0.48861935797880    3.31023278444251   -1.84970381537751
H           1.99436003113287   -0.04502143959071   -0.37708652404643
O           1.96969022378943   -1.01297942051812   -0.23021554152088
H           2.06847722959824   -1.36671591472169   -1.13075930555590
O          -2.50979843218090    1.09417603642794    1.50844734696580
H          -1.63881213472042    1.27615065820239    1.09781334543515
H          -2.66424342216192    1.80746178926920    2.12952985324480
O          -1.61753357516552   -1.35684399823132    2.15746833993265
H          -2.12510247032498   -0.52342570614782    2.06799787577772
H          -0.75211885202839   -1.09144523731330    2.53390808350495
O           1.22150755796485   -1.03524299332562   -2.84162365624592
H           0.56360274607991   -0.38129096921687   -2.53471913170028
H           1.84165994148512   -0.54315175658081   -3.38187541530210
O           0.87584728233571   -0.36730977992363    2.43447024875722
H           0.61889311695982    0.38945212274884    1.87920479161183
H           1.58257526300514   -0.80468030656837    1.95104848097691
N          -0.66877942983250   -1.53249630142934   -0.25104984079174
H           0.37312827219887   -1.48579718705265   -0.11116640975627
H          -1.15273740195520   -1.52732161426891    0.72143595055267
H          -0.88844252620393   -0.66455361602672   -0.78708217233565
H          -0.91767756634333   -2.35157800371661   -0.79644319003075
