    26
        -50.46390556  Gyration_radius:  2.53321894427 Dipole_moment: 3.369
 S           2.08570940993989    0.17614352758802   -0.79392734729749
O           1.44102700152905   -0.55776946470451   -1.87818865006093
O           1.28415127747171    0.13206017612900    0.41715410123360
O           2.51394550355656    1.49843108963835   -1.18142890795675
O           3.41254503921525   -0.62944325810264   -0.43932891347337
H           4.03486304666433   -0.30144722601747   -1.08078252042067
H           0.98025862087845    2.08995083794214   -1.34134870378969
O          -2.03465563236116    0.80170027422669   -1.13290096438164
H          -2.71252494535458    1.15499900890378   -1.71034827115929
O          -0.90689724085432    1.31759898498077    1.45244598986399
H          -1.51983781948295    1.19147053434745    0.71674303353738
H          -0.04880976688304    0.97520966550781    1.13597797764988
O          -1.49442116643995   -0.75647870928996    3.02842005433684
H          -1.35532956816577    0.08552675941428    2.53369772914157
H          -1.16121376727284   -0.60474688538508    3.91358952028228
O           0.10772659618152   -2.09263389514601    1.33849203020858
H           0.74643560602805   -1.37071610775127    1.18134349781881
H          -0.51329413489579   -1.74582621561521    2.01792346784962
O           0.05254579171951    2.39576352159449   -1.24526301387831
H           0.02125601538786    2.84230952126026   -0.39355829006997
H          -1.22842637950572    1.36263462875728   -1.27949223608162
N          -0.77025233132019   -1.61363498023849   -1.06223891966673
H           0.15077373295001   -1.24052543527433   -1.46385967687130
H          -1.42455859213795   -0.80983074280327   -1.05830950464331
H          -1.12662634592606   -2.38235106012846   -1.61833921449395
H          -0.53438994283571   -1.91839454051351   -0.05647226117777
