    26
        -50.46978199  Gyration_radius:  2.45047029766 Dipole_moment: 1.531
 S          -0.10241386594985   -1.19370104531556    1.33613966405840
O          -1.04170587773244   -2.27490288128458    1.22084548864267
O          -0.76637959208182    0.11765148884665    1.33797057357565
O           0.92318608040959   -1.21941236337189    0.28665405259995
O           0.63362144764076   -1.33709431299155    2.70910678871990
H           1.40188665943846   -0.74193246359135    2.65658408070428
H          -0.22564913576917   -2.23640800632392   -1.60749923834724
O          -1.15703262187381   -2.34000094220870   -1.39257238609858
H          -1.17014992075383   -2.54784588876476   -0.43157174623717
O          -1.05689439738647    1.84534854378447   -2.37723239796852
H          -1.02888082189078    2.75031055652237   -2.06035009573678
H          -0.15371043371387    1.46996106109504   -2.18670218868499
O           1.18311341144475    0.88796800906026   -1.43176419778536
H           1.21640702248143    1.53045963116403   -0.69019090927981
H           1.09997652676101    0.02828839029396   -0.98674764215566
O           0.90271134935274    2.18860957071344    0.90387178415387
H           0.20958812442883    1.54489299827587    1.14781929594771
H           1.68788148818011    1.90278824483893    1.38383304994668
O           2.65976416265619    0.10196248210655    1.71180174118689
H           2.16538959871909   -0.36435339455283    0.99912513618873
H           3.55568943094024   -0.24006907711433    1.69526060858671
N          -2.21398403171914    0.03433949948320   -0.84954711045729
H          -1.87166938071680    0.80293474501595   -1.49929695693439
H          -3.22204594934465    0.05396165352786   -0.73850598840074
H          -1.89756957500311   -0.90412203748947   -1.22370340621124
H          -1.73112968851848    0.14036552826712    0.08667200997671
