    26
        -50.46655292  Gyration_radius:  2.50506721457 Dipole_moment: 2.061
 S          -1.60658403660936   -1.11323197996946   -0.54639507967761
O          -1.61508204243564   -0.87612367411919    0.89191273785723
O          -0.67462534843455   -2.13234128128391   -0.95140395728677
O          -1.41738842983232    0.14466433977636   -1.27114225221158
O          -3.05027933654422   -1.63658292523746   -0.92835018865708
H          -3.65547015760316   -0.96548060046775   -0.62430110054451
H           0.16351883993205    0.00922528973694   -1.67866265085705
O           1.13911178543928   -0.13470207175157   -1.68060772485310
H           1.25713573930304   -1.02125840046582   -2.03141446561125
O          -1.52475173858718    1.89014615392702    0.78248013452025
H          -1.84331226435526    1.21968918619775    1.39550439233211
H          -1.48532587622047    1.42177712131872   -0.07193984550599
O           1.04344127219406    2.24905737700632    1.58321335271966
H           0.07774867128487    2.33605984620160    1.44432911345791
H           1.43136171586003    2.54982622064604    0.73883651811276
O           1.26934506310999   -2.95710646539292    0.73924362175726
H           0.55034482888295   -2.74034724677168    0.11464114031332
H           1.24317105432272   -3.90822655031833    0.84756680793624
O           1.53217540860939    2.57263679215055   -1.07212193632426
H           1.61308716226158    1.67559551937158   -1.42424794305172
H           0.69412013548935    2.91014242619363   -1.39596225313335
N           0.99041690442123   -0.30072861897221    1.05003160892436
H           1.21360016008694   -0.28385008919026    0.03091501284618
H          -0.02410117302438   -0.55074773243654    1.13315187327341
H           1.53517467262439   -1.04545427013400    1.48617691018055
H           1.14316699978970    0.68736161390910    1.43854617342698
