    26
        -50.46861486  Gyration_radius:  2.4602907526 Dipole_moment: 2.072
 S          -1.19311754944128   -1.86176896392376    0.21057943429464
O          -2.23088239713063   -1.57030504817130   -0.72981747794577
O          -1.15198061113535   -0.92188692797332    1.33354463047753
O           0.12962072914372   -1.95827607323491   -0.41680278295430
O          -1.48262494105872   -3.27906465944062    0.85445055188029
H          -0.94552761333281   -3.30019077442045    1.64157640805063
H          -0.14302728262633   -0.87225502794306   -1.64532686856586
O          -0.41438709322119   -0.14371811500392   -2.24889003208963
H          -1.09564606840697   -0.53266385278998   -2.80278568568881
O           1.74747224661940    1.46959220031605   -1.26305490968888
H           1.12333729107564    1.05103954288444   -1.86683762481478
H           2.09822735067047    0.74914243340302   -0.71083329225845
O           0.32134780904202    2.72238135812178    0.62084542236610
H           0.95935428282090    2.49343310325056   -0.09239330299497
H           0.58804232904595    2.15422834400360    1.38193620803277
O           0.88948056904225    0.68768767781524    2.24798859100744
H           0.12223931402837    0.10991617746737    2.10522025389176
H           1.61041245289714    0.26927027550611    1.75641165726479
O           2.32681252141345   -0.72822721713317    0.31889378882851
H           1.51183830730715   -1.22471254826532    0.07095323728268
H           3.06597829907174   -1.30617151140593    0.12530259725767
N          -1.59500058808958    1.21310792749902   -0.18441865880796
H          -0.86409613495853    1.96462317760748    0.15646667683270
H          -1.58555340188707    0.42468375400571    0.50454855125476
H          -2.53267378561167    1.58599599145650   -0.28380585568300
H          -1.25964602527832    0.80413877636867   -1.08375151722952
