    26
        -50.47445554  Gyration_radius:  2.4127258193 Dipole_moment: 4.656
 S          -1.31483991899135   -0.38877601013798    0.56276680359323
O          -1.68116549631046    0.85954348288939   -0.11264612798723
O          -0.42014167380172   -0.16453209394181    1.67063408376417
O          -0.76433163466471   -1.32665986886712   -0.42375969413123
O          -2.61616533185559   -1.02867384347119    1.13628004473369
H          -3.18879951956555   -1.11657521688848    0.35043148985778
H           0.02419904900427   -0.29941302999922   -1.46090345652781
O           0.41941615940929    0.45148613438844   -1.95977486245994
H          -0.29300575409015    1.09610907032816   -2.01144717101591
O          -3.33273761019729   -0.80314929563477   -1.40284058002696
H          -2.61569511892922   -1.38332118563149   -1.67962880424425
H          -2.91042665846725    0.04464642174668   -1.18593783343878
O          -0.10796211096002    2.54134200564351    1.17948789684504
H          -0.11236348338415    2.08862094216631    2.02923742870027
H          -0.78585677857173    2.05420378520113    0.66000444288480
O           2.21594651542278   -0.57760772946334    1.54705783256137
H           1.28140602640843   -0.50294151676581    1.82661524987596
H           2.22852353336693   -1.38476407007787    0.99578402452471
O           1.62290337917372   -2.52161506798505   -0.21360710497086
H           0.69971437566114   -2.19962815191725   -0.23322186312193
H           1.87235442006771   -2.67069578613599   -1.12706922877388
N           1.98601293273347    1.46508134327154   -0.04269574051483
H           2.80326519092092    2.02057067656821   -0.26832088958371
H           1.52265025774928    1.07824925936194   -0.90360840420014
H           2.22205798092140    0.63420385041777    0.60757490738877
H           1.24504127892968    2.03429588493347    0.45958756628583
