    26
        -50.47172567  Gyration_radius:  2.52557541367 Dipole_moment: 1.037
 S          -0.69541739853774   -1.47046179586006   -1.16808769100632
O          -0.41629736799443   -1.41620822583606    0.25778821419340
O           0.47309680180690   -1.75679566703740   -1.97406728803927
O          -1.40467633489588   -0.28028416160998   -1.61623607705393
O          -1.67456921408090   -2.69611719076606   -1.37830981143292
H          -1.48615035641492   -2.93646120486195   -2.27906452627133
H          -0.30051422503560    1.10768599033478   -1.61047566240488
O           0.35201955324970    1.73296807786946   -1.24447382462429
H           1.20591545614764    1.26931022068823   -1.28691472294453
O          -3.11349857414151    1.00158323949763    0.02074209760112
H          -2.57144940119899    0.47875471120477   -0.60502127272390
H          -3.75871866225107    1.46625992579614   -0.51337262107604
O           2.37198246901482   -0.12100511875717   -1.26364273451698
H           3.11590681554915   -0.22084740004516   -1.86005884237623
H           1.69863820778125   -0.78788934024903   -1.54826623447296
O           1.16063158409225    1.00603483260128    3.08372644845068
H           1.08876085875037    0.60396198473206    3.95004762747411
H           1.61404849329135    0.33937892004936    2.51059648693091
O           2.01612771161021   -0.86397669521914    1.39300230388674
H           2.39409924656817   -0.51293120405429    0.57221407323127
H           1.18370464591426   -1.27810386182007    1.11183416890194
N          -0.65803046964190    1.08985699277455    1.11976475496534
H          -0.11933294422731    1.25116343885676    1.99635956678851
H          -0.19828582186541    1.56320668474665    0.29552728848977
H          -0.63134488212061    0.06692691227412    0.88996246212242
H          -1.64664620139592    1.36398994469938    1.14642581590647
