    26
        -50.47468849  Gyration_radius:  2.41776231708 Dipole_moment: 2.068
 S          -1.57560948686296   -0.52085984779000   -0.46744155745981
O          -2.45505543728815    0.15650093953946    0.44207347060546
O          -0.68595776206190   -1.46378894598948    0.21613571346472
O          -0.78425655046749    0.41400575679424   -1.28185016998879
O          -2.43733972755533   -1.35805698511450   -1.46852003911467
H          -1.77737331960132   -1.68892416353562   -2.09979359230538
H          -0.01707920694579    1.60069105766843   -0.49512141628996
O           0.46217468092425    2.30073289218591    0.01365835117873
H           0.48009163433440    3.07519833395483   -0.55047434006685
O          -0.24279235756665   -1.38570436542750   -3.05647276490755
H          -0.29432157804751   -0.59136424823842   -2.47717463378603
H          -0.40773895458238   -1.08514091402570   -3.95233748923682
O          -1.14439552372095    1.69319663159157    2.18648669683107
H          -1.80644642775578    1.21842956863981    1.64196615883684
H          -0.61151335961735    2.19427418102503    1.54707294293637
O           2.43149606960200    0.55150409504068    0.85577779769469
H           1.92001404520778    1.30345796247211    0.51095328695403
H           2.39572101746071   -0.13572948432107    0.16046824435204
O           1.75932159852632   -1.41699781518661   -0.87386988783484
H           0.87421256918237   -1.53645356862728   -0.47821697988808
H           1.62825648452966   -1.54867231307444   -1.81628352886112
N           0.46660163289730   -0.37152330653109    2.32407103227102
H           1.37547451533669   -0.02776365339922    1.87383319375940
H           0.62935829751711   -0.90348996156209    3.17093470547798
H          -0.16248904375079    0.47351325599965    2.48324399776484
H          -0.02035381970209   -0.94703507209240    1.59088079761741
