    26
        -50.46879239  Gyration_radius:  2.47384313324 Dipole_moment: 5.551
 S           0.96376293618626    0.37068705353431   -1.13096360272297
O           1.02526663654284    1.63913981269016   -0.42988597309096
O           0.04373873824980    0.38235331674437   -2.25653301026721
O           0.61200859937006   -0.72674551123597   -0.21424681989848
O           2.37739015884592    0.04029770219765   -1.69038300363522
H           2.95468288173924    0.22611383587658   -0.91101247352410
H          -0.37072658295700   -2.01812077383398   -0.50632506071731
O          -1.05436844251673   -2.65954143417455   -0.81462442649251
H          -0.64701876537579   -3.15033960806493   -1.53046501695332
O           3.34095860099254    0.80778354153041    0.61677530649465
H           2.97125770198198    0.28748568459658    1.34932056017706
H           2.68395352843569    1.50255108337867    0.45344230615097
O          -0.38315628937262    1.48179821214726    1.81194410208865
H           0.14488477397020    0.81978008450987    2.27781197761647
H           0.11631448127468    1.66113137265869    0.98832860113184
O          -2.74674586014480    0.97746140278640    0.82458115141319
H          -1.86324153642201    1.08754505238689    1.27289854114056
H          -3.10161324544103    1.86557256625928    0.75655502324966
O           1.53635989643448   -0.58300232577831    2.21841389567908
H           1.16462775476767   -0.69094936110006    1.30978005036288
H           1.52171807896738   -1.45194931084915    2.62169661153908
N          -2.28848155424477   -0.37108153518690   -1.41448097241891
H          -2.05893287575280   -1.36456454074091   -1.17102123769011
H          -3.04821959466812   -0.31355216072655   -2.08399474201387
H          -2.51533337746034    0.16057994548790   -0.52583639473718
H          -1.37908666334195    0.01956588489004   -1.82177538290403
