    26
        -50.46066996  Gyration_radius:  2.53466984156 Dipole_moment: 1.979
 S          -0.48429185419463    2.04665940634486    0.96208861494608
O           0.54942774610761    1.38730421651085    0.15865043921295
O          -1.08953795842101    1.08661171745975    1.87415272083535
O          -1.42327458505777    2.81249809222987    0.19105318880189
O           0.30687522544061    3.09413436484030    1.87184024220501
H          -0.14664192148940    3.91730478497661    1.71558837965591
H          -2.13507204359764    1.17395039444507   -1.05778549559687
O          -1.52597701266941    0.43560146208474   -1.16358721556342
H          -0.71581583630758    0.76072001974385   -0.71917361535681
O           2.00955713845562   -0.41886308958838   -1.48573975002460
H           1.33435149352831   -0.88787441742821   -1.99894311666712
H           1.58097530837293    0.38623293312949   -1.16675902387653
O           2.37077721865874   -0.35856682774185    1.19678109778377
H           2.55820950835649   -0.65086748321273    0.28544525804875
H           1.95265729959995    0.50935025826540    1.06161156636264
O          -1.29656377720509   -2.16959875969422   -0.30226449509077
H          -0.78886685820843   -2.40770283461967   -1.08686597459255
H          -1.66334349010086   -1.29176354532326   -0.50808170596017
O          -0.26929418202223   -1.34103738663443   -2.83624433115126
H          -0.29906716911551   -1.21475179558582   -3.78528121505347
H          -0.79649053941297   -0.62630521357011   -2.43574480606178
N          -0.00282538580894   -1.27713236553635    1.86179136873433
H          -0.45601187404193   -1.77284564063999    1.05359519992964
H          -0.10732418061372   -1.80256899420286    2.72236037869661
H           1.01810454289687   -1.06483023394422    1.64746184337602
H          -0.48053680313457   -0.32565906229905    1.94405045641361
