    26
        -50.47115286  Gyration_radius:  2.41939359882 Dipole_moment: 2.761
 S          -0.56330672641954   -0.88725568064916    0.28640602990421
O          -1.76284865860684   -0.94053847154580   -0.52470474568344
O          -0.87452758372415   -1.35273610149069    1.73368734002401
O           0.48216361081020   -1.78928229135460   -0.19187543971761
O          -0.06015233524382    0.48851297665692    0.37337055111978
O           2.57401983505036   -1.20106100059903    1.36406690377355
H           1.81977453056643   -1.53196771402067    0.83716787988605
H           2.32396878875837   -1.32079459698005    2.28120427277007
O           2.49845062915570    1.09577671228069   -0.08218132854045
H           1.56315707393472    1.14692939216142    0.19670652982415
H           2.85712402172910    0.39030543481268    0.48845680431814
O          -0.87053537195391    0.55255445213372   -2.51081592872983
H          -1.28662135347194   -0.07483941356873   -1.87595605797473
H          -1.10275642814054    1.43037698071492   -2.19590095443895
O          -2.44022267542791    1.60560663889590    0.20282807891310
H          -2.83443805375316    0.85698218803528   -0.26160387296977
H          -1.48694019042207    1.38157357372140    0.24244262525251
O          -2.49270033706702    0.49022325623831    2.61679960168081
H          -1.54581865624266   -0.72456984847475    2.11772570555266
H          -2.02453591630810    1.07078062681365    3.22052707454815
H          -2.64170446763379    1.01053685506590    1.79040330722913
N           1.59898746423771   -0.34172846399551   -2.06020929762614
H           0.72640027009888    0.12263319152522   -2.41847590358086
H           2.12007760288526    0.32877540971623   -1.40121778461608
H           1.24283937836633   -1.10254023624646   -1.42095922237954
H           2.18014554881408   -0.70425386987920   -2.80789214853926
