    26
        -50.46819393  Gyration_radius:  2.42355487786 Dipole_moment: 4.153
 S          -0.19932001902803   -1.34840381590428    1.42985733217073
O          -0.49582351015048    0.04978897112630    1.73984235657665
O           1.20434371427804   -1.66173189615899    1.57474741462585
O          -0.73079385217792   -1.72874669005894    0.13667697929846
O          -0.96885100262761   -2.19144986539491    2.52473644776575
H          -0.50571770501653   -3.02052630872394    2.47668158878624
H           0.14397078685856   -0.98587169344342   -1.08969971360656
O           0.55370276346100   -0.51889945786532   -1.85135955137816
H          -0.08724200066246   -0.65935787876112   -2.56049121100499
O           0.06879261826019    2.08379760840538   -1.29375792445721
H          -0.83722448377072    1.98309744053342   -0.95501390229242
H           0.28285924531434    1.20704252815111   -1.68116687472831
O          -2.16377168883426    1.21624543089213    0.03510886571174
H          -1.60520273461144    0.71337041482399    0.66846317611041
H          -2.90954324079302    1.54784158565370    0.53673184164498
O          -2.23966715335194   -0.75754824388820   -2.04535485889923
H          -1.95651945111545   -1.39949024173482   -1.38280609063587
H          -2.41339861464209    0.04448985343107   -1.53611901541681
O           2.80530508564277   -0.48713579702425   -0.17837990053321
H           2.31845394774418   -0.60617015786742   -1.00641987998094
H           2.37244755146000   -1.08556661449101    0.46741614719526
N           1.49106066408592    1.54880624279688    0.82133200261544
H           1.94141144367884    2.25853898880609    1.38721266256674
H           2.18479296347062    0.82893993576203    0.44464518022182
H           0.77249538443709    1.01343520889834    1.36402925642253
H           0.97343929808904    1.95550448203847   -0.02691233878182
