    26
        -50.46071623  Gyration_radius:  2.45822150247 Dipole_moment: 6.677
 S           0.86717565964256   -1.56442617479904    0.49186179501429
O           0.07269244713892   -1.87223310292711    1.67219354038871
O           1.63042085702888   -0.33977045330960    0.66039457327770
O           0.02182039178235   -1.46974024427488   -0.70600372025320
O           1.86117569722319   -2.74531529485499    0.27948388212068
H           2.31511377068386   -2.48774510926487   -0.54777109209568
H          -1.38184799978606   -0.79709329150897   -0.58517962370922
O          -2.26897325966117   -0.34463015772148   -0.46563337254285
H          -2.92097990070954   -1.01184792359476   -0.68727104063560
O          -1.37789013874834    1.49723127965074   -2.33455488676489
H          -1.79834299494524    0.84898167674346   -1.74488515626870
H          -1.91892998085828    2.28809386786006   -2.32146264164174
O           2.40434458008694   -1.39113795339989   -1.93048281625934
H           2.75284229534888   -0.53712566722115   -1.65936310826106
H           1.43775580669825   -1.32666647668261   -1.85396448456163
O           0.90247761775746    1.83437405873024   -0.81448883152453
H           1.18868564540870    0.96338548501461   -0.49023797262652
H           0.18715601414778    1.68247401460775   -1.45636903323398
O           0.62017910544082    1.97493126588958    1.80924036963914
H           1.30530085854685    1.29044274870605    1.84060329959012
H           0.64493156642412    2.24270838713692    0.86088027243846
N          -1.33804059286610    0.26813282526257    2.01547383681951
H          -0.60842071281365    1.06447448242077    1.96541283687595
H          -1.90153851183611    0.23313264884845    1.14571167936447
H          -0.77525369237785   -0.64429117283162    2.01492584052927
H          -1.92185453888610    0.34366028144955    2.84148584427212
