    26
        -50.47117722  Gyration_radius:  2.46053068287 Dipole_moment: 5.163
 S           0.78780436114222    1.03765799629162   -1.14039943541430
O          -0.07432835905871    1.83931264936646   -0.26227424094019
O           0.06763078120188    0.47080632625240   -2.25548031082678
O           1.46917574521486    0.01164828747523   -0.34192642433708
O           1.88849956436471    1.97639369036704   -1.72413137511682
H           2.28232051284676    2.40814877946334   -0.94266689496582
H           1.07547434900646   -1.55182754981076   -1.02087941853313
O           0.47117706543862   -2.06356096573715   -1.59608721019637
H           0.25915057523721   -1.39527556380510   -2.27026746281170
O          -2.29209939431269    0.59327172949961   -0.91605825115575
H          -2.03118633340665    0.55015968398486   -1.84431903806097
H          -1.59636309155087    1.17324967592877   -0.53595249081176
O           0.55782394786837    0.42966264164879    2.07022203420910
H          -0.05285483486890    1.14092684773703    1.85106928906787
H           0.99253990996511    0.21386328650178    1.21133386285397
O           2.17190533273256    2.81146666432274    0.78958001263671
H           1.22385786293525    2.67913865692281    0.61125924382179
H           2.41922486538310    2.13986920945921    1.43165767419567
O          -0.78777501377288   -1.80959081206526    2.39899613427679
H          -0.14485455195293   -2.46633887322664    2.67113649769446
H          -0.30230924015251   -0.94376742931413    2.39152098132972
N          -1.69406788067003   -1.86543226741380   -0.11107077115772
H          -2.02159258441112   -0.88589714211075   -0.36321565834948
H          -2.43206860616549   -2.54025255351103   -0.28152278059756
H          -0.83780086679736   -2.06572005579033   -0.72137913755960
H          -1.39928412633761   -1.88791290220570    0.90085514078237
