    26
        -50.46815524  Gyration_radius:  2.43665016711 Dipole_moment: 4.322
 S          -1.20575390523812   -0.20416127231934    0.02898795305439
O           0.33216787369747   -0.09974496450548   -0.35288166990962
O          -1.95347153660287   -0.21636593234927   -1.20305420277948
O          -1.32304311060736   -1.42140669035775    0.81654598891507
O          -1.43540833266659    1.00281240637697    0.82449836715890
O          -1.16582003854630   -2.19323554265710   -2.78514307205918
H          -1.49970075040264   -1.41864125701930   -2.28236659622649
H          -1.94252173234531   -2.69106086439519   -3.04553195996133
O           0.94723329462141   -1.39206785427424    2.17926485801386
H           1.49515129539050   -1.91701221747114    1.58930614597998
H           0.03342866054385   -1.47201640004430    1.82196194255279
O          -0.52890596462237    2.40369413738020   -1.27530497974336
H          -0.71392277167589    1.79383470562487   -1.99356618460699
H          -1.00928100162395    2.03249120290265   -0.51455755230236
O           1.86066320501809    2.59025874888262   -0.05910893409084
H           1.06957022037119    2.42560317799462   -0.62387488614571
H           1.98100604219754    3.54170768448295   -0.05622870210161
O           0.50326191974542   -2.66027699890218   -0.73143513154713
H          -0.24258850715261   -2.64955372850878   -0.10922401789643
H           0.08596369352667   -2.70106605995348   -1.61460702230473
H           0.60747721602687   -1.01714092132440   -0.61304223881542
N           0.84386622602745    1.26769013688551    2.02799776863134
H          -0.15448629357327    1.24609251727960    1.65442065025903
H           1.10359433676407    0.25220362470684    2.12614652951496
H           1.40727110071640    1.74272513300292    1.27479780815611
H           0.90424887041432    1.75463725853982    2.91599915826543
