    26
        -50.46851040  Gyration_radius:  2.45310373039 Dipole_moment: 4.998
 S          -0.42133484991690   -2.02773271921742    0.09467111215454
O          -1.55968129632084   -1.38193997572612    0.73645509271097
O           0.83075877682012   -1.73478433440776    0.75533013217716
O          -0.40424141083705   -1.76553643353368   -1.33736800890396
O          -0.65099307788898   -3.58560538849098    0.25106879703271
H          -1.48410953942460   -3.70659717430371   -0.19163647273793
H          -0.80647513058614   -0.23834151521703   -1.61131003193714
O          -0.95691642056382    0.71556936813223   -1.83724327257727
H          -1.23549210375750    0.72649150059368   -2.75446812900337
O           1.55708244362944    1.40936355529763   -0.80520579983720
H           2.06769557897524    0.62241963106656   -1.08622377225655
H           0.68787071049670    1.27537324827426   -1.21321320100748
O          -1.30968014394992    2.70048763712886   -0.01733672416510
H          -1.37166036073124    2.03687579391435   -0.72935159276672
H          -0.43857789329802    3.09701780702571   -0.11184991577800
O           2.29773560189304   -1.12353422393973   -1.40874902849495
H           2.00149327516807   -1.44225372648366   -0.53853842286050
H           1.58721153699683   -1.39996037518569   -1.99719798916291
O           1.53624784306236    0.66357401293841    1.77046477118699
H           1.67756048603419    1.07901360314487    0.88790463255855
H           1.51104608765084   -0.29106877799032    1.57962532686554
N          -1.04350966153204    0.88523000045414    1.93749626616848
H          -1.29058176569191    1.66174190460891    1.27748624479066
H           0.03256588217678    0.85803205022237    2.01465891938593
H          -1.49025402684445    1.00260696647023    2.83944843339442
H          -1.32376055156188   -0.03644242477208    1.49508265305429
