    26
        -50.46369355  Gyration_radius:  2.50160746895 Dipole_moment: 5.132
 S           0.51152973659605   -1.47787830013667    1.65809490534181
O           0.73927624709865   -0.09271815310451    2.00044573860731
O           1.15288824637179   -1.84981503363717    0.39509496965814
O          -0.88933347538736   -1.86120581708881    1.66223655297577
O           1.21331581793179   -2.34208314895762    2.78067004201122
H           0.84459843956542   -3.20755246101963    2.63727332826388
H          -1.81358788529211   -0.97835156689318    0.70962479179022
O          -2.29614231392841   -0.41666129241237    0.04642504841006
H          -3.20976922912144   -0.70508159012969    0.05994505403125
O          -1.59007332855212    1.66969101704670   -2.39254086949840
H          -2.07256774230300    2.04276333483876   -1.65185109986583
H          -0.73502831203019    2.11153478568288   -2.39795808542289
O           1.02121278475544    1.76913735498127   -1.14956526988154
H           0.40054315604800    2.00757702097406   -0.42135768364638
H           1.83312185179245    1.46576329370291   -0.68701164943312
O           2.78103766111809    0.43506104076860    0.36426638533994
H           2.84685463033008   -0.47405569456270    0.05701362009994
H           2.15419586788142    0.38201215513107    1.11016104096087
O          -0.79031626107892    1.80508896500012    0.80832581559421
H          -1.50223365623214    1.20028151037058    0.55301234998331
H          -0.24322487083207    1.28535594948271    1.42277433420139
N          -0.07378950058011   -0.57330296958167   -1.53490999165544
H           0.38799666286077    0.40308037836581   -1.51067196075204
H          -1.05328419543536   -0.45589603529639   -1.21586034769555
H          -0.05092028416445   -0.96186115890864   -2.47131464142441
H           0.43369995333358   -1.18088358483381   -0.83232235818546
