    26
        -50.45315825  Gyration_radius:  2.41695711677 Dipole_moment: 4.027
 S          -0.55197080389704   -1.51912173505931    0.05777894135640
O           0.51196897265897   -2.44368675736366    0.25643900823036
O          -0.37094697626694   -0.60007078092679   -1.04888071375729
O          -0.76220336389527   -0.66711490210931    1.34129691755409
O          -1.88789561899342   -2.22324451127043   -0.08433166351134
H          -2.52750802963914   -1.50725025045151   -0.46723709703841
H           0.08058516057165   -0.11924302757192    1.54518672095963
O           1.33857281208079    0.68096108690371    1.76368133356622
H           1.64071623140632    0.57046079371110    2.66684888846916
O          -3.19485059630599   -0.30476726155619   -1.04443125773864
H          -3.13239460420812    0.41098079389465   -0.35313460136557
H          -2.59328959245613   -0.04472285629604   -1.74901933460936
O          -2.60935364405242    1.46194374046157    0.81124057868245
H          -2.28149443051323    0.86070765943744    1.48747391007895
H          -1.81131154128697    1.87989985933094    0.42250446416941
O          -0.17757574107864    1.97489397107015   -0.25640811904222
H          -0.22702852602146    1.07987613378657   -0.63771690299526
H           0.45268651576138    1.90890316127986    0.47066227151279
O           1.87642748646618    0.52531711920480   -2.21846142460880
H           1.60587256111472    1.44247711498751   -2.12412506020103
H           1.08641374405435   -0.00241998610122   -2.02947938063770
N           2.79490387488825   -0.71279655582683    0.20367730744674
H           2.01458325359759    0.16090514245087    1.15166296775206
H           3.74743164208516   -0.99299590049148    0.39705367595560
H           2.21051472781257   -1.54580790412736    0.15568180861321
H           2.76714648610656   -0.27408412739063   -0.71796324880185
