    26
        -50.46319970  Gyration_radius:  2.57675319675 Dipole_moment: 5.098
 S          -1.15510804278009   -1.97942878264220   -0.34700988587440
O          -0.75136088167116   -0.78923259232296   -1.10319976909969
O          -2.11455917764920   -1.67182230911907    0.67823333941925
O           0.02056354246107   -2.70171235318111    0.12797289767087
O          -1.82955535157065   -2.96369670286528   -1.39074838977213
H          -1.19183099470843   -3.66916111368354   -1.39244508773924
H           1.03937921438549   -1.92662275860491    1.07656823604527
O           1.61964649392353   -1.37113935136539    1.66377947970768
H           2.06175597048750   -1.98709052176866    2.24960991436582
O          -0.52050912380782    2.17729827459372    1.16575018010264
H          -0.76639372911048    1.34765146478300    1.66445057892729
H          -0.53600243163362    2.89122746080026    1.80362850463347
O          -0.80517853821680   -0.11281394273288    2.36392798143256
H           0.06505028525547   -0.53858441912075    2.31844226943098
H          -1.40461848283083   -0.68093186767419    1.83473175457375
O           1.49762969751334    2.04263218783361   -2.38877123279681
H           1.57707762008469    1.74488244486516   -3.29552727445435
H           0.52837606290008    2.13458657386153   -2.21797880879068
O          -1.07168132498744    1.89068834567001   -1.64386621133467
H          -1.12303611562973    2.18217838315684   -0.72379872224016
H          -1.18165645401829    0.92651411172426   -1.60926679514398
N           1.24738404161651    0.61196905998024   -0.15912470965788
H           1.85187536963616    0.04473658277782    0.44203910450911
H           0.48280859132765   -0.01766117252474   -0.54767757921180
H           0.75533207102696    1.33939270901019    0.39939611319882
H           1.70461167799213    1.07614027854022   -0.96911589793391
