    26
        -50.46789666  Gyration_radius:  2.38712073196 Dipole_moment: 4.850
 S          -1.03136702507036   -1.37719792768863   -0.44991317398983
O          -1.93846838666367   -0.95112315459017    0.60490676868557
O           0.16133708990280   -2.00943182727229    0.08170857941532
O          -0.74165518785547   -0.30535633815336   -1.38526082920876
O          -1.79425768423260   -2.47674331369191   -1.29106975000342
H          -1.89336137582460   -3.20178385819368   -0.68177351754539
H           0.04662848620181    1.18366104714672   -1.00591065630228
O           0.29690623793730    2.03207533929073   -0.58414689924028
H          -0.39114446163432    2.64822254408002   -0.85399239490424
O           2.79223112675825    0.69081392358148   -0.01588923523124
H           2.19598456923788    1.41346254045975   -0.24046289883738
H           2.67441297948524    0.02358165308692   -0.72322671588169
O          -2.50977004725430    1.60966139660302   -0.51527084314077
H          -3.24277805682285    1.19125693587296   -0.06116988935502
H          -2.03287358524049    0.88336770552736   -0.94667248242091
O           1.61294930694334   -0.65125562570457    1.93853899201783
H           1.21742576964625   -1.35465326178834    1.39335724987835
H           2.23078137868436   -0.17679929165853    1.32634171445916
O           1.88779891183716   -1.15516198882527   -1.78885063065974
H           1.22196562147463   -0.73418768246054   -2.33992562647824
H           1.37552091019129   -1.63090575315135   -1.11142770322998
N          -0.44204809148740    0.89406754223817    1.75408987852847
H          -0.18710956872701    1.52265211914692    0.95560078624125
H          -1.16288447106061    0.21391940139419    1.39990629182323
H           0.43953746513309    0.29799615467361    1.99034992957199
H          -0.78576189155781    1.41986172007466    2.55016305580976
