    26
        -50.46045549  Gyration_radius:  2.42256525295 Dipole_moment: 4.761
 S          -1.16023802576696   -1.61454844958033    0.27220053143409
O          -1.04517027257221   -0.91527469762554    1.54541225856045
O          -0.02182956375965   -2.44250192206323   -0.02963306801838
O          -1.47322911660627   -0.67577475736315   -0.80422184173152
O          -2.41247445934454   -2.56570540325755    0.41561130949451
H          -3.04837323978051   -2.00355573573904    0.84806431817110
H          -0.45711126775738   -0.05447679439388   -1.87300331353498
O           0.19762489653361    0.38383054400567   -2.47758854324436
H          -0.15552999361876    0.28230174501748   -3.36266399249517
O           0.49092920630723    2.66191137205242   -1.04444897295467
H           1.19558753697123    3.20030679704653   -1.40678360009682
H           0.38876458670704    1.89127204466594   -1.64169509352441
O          -1.88637688750163    1.76180687274593    0.36000567727475
H          -1.47557047680608    2.36874846007907   -0.26195612416560
H          -1.86839517925848    0.88738764317672   -0.05964956451415
O           1.48615184016535   -1.43466937190201    2.45557871097004
H           1.80051862594271   -2.16820920006252    1.92374970900339
H           0.52987075389149   -1.39893703114224    2.30258650122685
O           1.91803343278728   -0.75236315317701   -0.62976694372763
H           1.33205242748070   -1.51409990833386   -0.43068147004055
H           1.60020818861515   -0.40635389405802   -1.47629728322568
N           0.81811667368962    0.92912564954519    1.08617681406104
H           1.39878401100877    0.27092619251328    0.47637436926686
H           0.58376708071312    1.77516537114994    0.53755889285020
H          -0.05686249602272    0.40062583087214    1.32934933021347
H           1.32075171799286    1.13306177589563    1.94572137872797
