    26
        -50.46480295  Gyration_radius:  2.53292158184 Dipole_moment: 3.614
 S          -1.19006050737619   -1.69334930343305    0.59044224094504
O          -1.49482296603059   -0.83509863889595    1.70743071631105
O           0.24563973111639   -1.83118704740133    0.36578144106150
O          -1.87347109109465   -1.31279536547365   -0.63895684807100
O          -1.72899111563848   -3.13647815505913    0.95059020602804
H          -1.61875379055565   -3.56962049567010    0.11154263434076
H          -1.36119099611859   -0.03602253433829   -1.35829765733589
O          -1.00259178574110    0.78276615712571   -1.81193174827330
H          -1.73870633403973    1.14063634799363   -2.31066566078373
O          -2.02533988850774    1.69441432305758    1.97641623561826
H          -1.95369582073487    0.71524547962455    1.85277399646000
H          -1.95782459669208    1.82940594373282    2.92351484495126
O           1.14679563981470   -1.07332136354048   -2.03442533447857
H           0.82202677040213   -1.46997687505686   -1.19993323307201
H           0.47923556339989   -0.42033149584825   -2.27766419753276
O           1.70224077795833    0.21454488149806    1.21969635015288
H           1.18117617036649   -0.60356386394438    1.06696620906803
H           2.39303999946034    0.21419214609466    0.51670960008630
O           3.22844415611216    0.18027603396926   -0.97259141019112
H           3.97674719568296   -0.41710436767153   -1.00015694574270
H           2.50649739767266   -0.26821240197463   -1.48030726490037
N           0.05702244663688    2.00917731933891    0.35326672834546
H          -0.30132279733378    1.62837031212339   -0.55076720411971
H          -0.75367048680107    2.04327592534237    1.02413229010789
H           0.78017841171193    1.29436351095764    0.75426483803530
H           0.48139790630495    2.92039353746996    0.22216917294771
