    26
        -50.47113442  Gyration_radius:  2.40833661934 Dipole_moment: 2.397
 S           0.56549928173491    0.37305649230048    1.23198549532553
O           0.84557682680339   -1.01895533136042    0.87400350226573
O          -0.63018374405493    0.49745367535424    2.02319210810375
O           0.51514668860527    1.20917152908952    0.02670508566851
O           1.77228592882412    0.88000243675039    2.08535564751286
H           2.51386157540535    0.88132292679793    1.45761225482909
H          -0.11752361865726    0.52945800179498   -1.44536217717132
O          -0.32832007644006   -0.12440147283789   -2.14019114444966
H           0.52243556667169   -0.59367876634141   -2.26404361985156
O           3.09181196486824    1.12962670542647   -0.26007279147998
H           2.11953290097685    1.24934101745952   -0.35276496612602
H           3.49339841661580    1.98271458011439   -0.43682028635336
O           2.04031011262970   -1.26528412261574   -1.53653717917644
H           2.77858586351622   -0.65012823188116   -1.48885983477606
H           1.70153388449802   -1.31167277381850   -0.62277667631725
O          -2.28049256765933    1.87324479914871    0.31473931369789
H          -1.76500992318964    2.16484544244125   -0.43963303177342
H          -1.62917611543536    1.60363429952465    0.98342903957509
O          -3.05082600132735   -0.57344709206263    1.20616055700147
H          -3.21536271043312    0.28519740382928    0.77858975867432
H          -2.37193879842293   -0.36191991811764    1.86692442634007
N          -1.33515984610000   -1.78159055993477   -0.38238008829310
H          -1.11943331920279   -1.17271563563153   -1.23354724134070
H          -1.49678266492110   -2.74908638250062   -0.64069032936727
H          -0.47443183070991   -1.67924142462127    0.21446270709472
H          -2.14533778462634   -1.37694757838557    0.18051947038684
