    26
        -50.46713674  Gyration_radius:  2.40179190839 Dipole_moment: 8.988
 S          -0.78385257011270    1.58336044981978    0.26793496834265
O          -0.33647961629471    1.24378254951308   -1.07830668601820
O           0.20271225425663    2.41079978608303    0.94930534782093
O          -1.05769441211880    0.36652760768452    1.04739614122032
O          -2.10608151981435    2.37528004497878    0.16360262655820
H          -2.76891090701274    1.67070384644828   -0.07551300041645
H           0.03697565635907   -0.59442962485707    1.52995205045952
O           0.77993409405977   -1.21049003615140    1.81767100876433
H           0.47548422952610   -1.61123309438848    2.63351365802913
O           1.96802955702022    0.05849187863061   -1.51965941864967
H           1.64796577686704   -0.85712966871178   -1.44555562715684
H           1.14436405215384    0.59166523020699   -1.58200635481000
O          -1.59161688134252   -0.95057946018454   -1.91924796584826
H          -0.96957375878781   -1.61235090840515   -1.59636731763685
H          -1.14140311376616   -0.09783620940248   -1.76584363691380
O           0.75121834924551   -2.29697402032616   -0.71138842107077
H           0.73083177528942   -2.00094814097746    0.21820542483269
H           1.00842101952446   -3.22002991440859   -0.71220009939793
O          -3.40192069268152    0.16250152134815   -0.23013367392836
H          -2.81895520574853   -0.09823001915659    0.49785477042641
H          -3.01536955780274   -0.28496773182499   -1.00967766566887
N           2.28469753149870    0.87875884024057    0.92373980610630
H           1.49339379082717    1.60676827418744    0.97378783976413
H           1.98349092994417    0.06942071128940    1.49054863609421
H           2.31690324310977    0.55217693183204   -0.10733507061487
H           3.16743597579005    1.26496115651487    1.23972265970024
