    26
        -50.47250311  Gyration_radius:  2.48724690167 Dipole_moment: 2.879
 S          -1.99331824425659   -0.81839360997117   -0.70744762264192
O          -1.45017302840006    0.52639880916712   -0.71990631891307
O          -2.06505210116667   -1.36498294197752    0.64216485488458
O          -1.32444061947672   -1.72050303977908   -1.62522381611684
O          -3.48705008437366   -0.69451104411770   -1.22046183829489
H          -3.72237452786825   -1.61029817455249   -1.32244335116472
H           0.24854105199966   -1.78908428096167   -1.37985585951609
O           1.23351472413297   -1.77167516636347   -1.25434011838411
H           1.55664716652658   -2.60972551491243   -1.58841288044458
O           0.86263916376680    0.88209182632369   -2.00928779013170
H           1.18258734454840   -0.03199592605583   -2.00142873881458
H          -0.05956874785411    0.81981630732701   -1.68871267562571
O          -0.56205191349171    2.22499124336850    1.18090519398747
H          -1.04346196314884    1.82891583901255    0.43110328846049
H           0.35404332000430    2.32477487966114    0.86314361670425
O           1.95919140857179    1.93471975243789    0.10591845413920
H           1.57260629489428    1.59452001735617   -0.75279636235936
H           2.61298217850671    2.59203668140858   -0.13291247661470
O           1.98926805755562   -0.62941389648225    1.11111657807483
H           1.78511899697133   -1.11671230190134    0.29053210386346
H           2.16208730190011    0.28700606043545    0.82922282041669
N          -0.36378037396766   -0.17988248467647    2.22217077238585
H          -0.48310511905792    0.85150615856823    1.98653018368171
H           0.60450821732412   -0.45973740986320    1.88664893832538
H          -0.48816520299632   -0.36457547635618    3.21074095945961
H          -1.08119330064966   -0.70528630709915    1.64303209463577
