    26
        -50.46862428  Gyration_radius:  2.56430915933 Dipole_moment: 2.407
 S          -1.10321195046767    0.85305800648321    1.59464267733510
O          -0.16962660842709   -0.26748869644334    1.75074663977276
O          -2.22378597445308    0.51350584175213    0.75684624594666
O          -0.40879071884239    2.06390711566842    1.18653185303512
O          -1.68790275275008    1.13946605550414    3.03928667784538
H          -0.95981977793929    1.51242018689845    3.52839910849271
H          -0.37495215257326    1.75003369017316   -0.42834291994543
O          -0.40068497363990    1.40991657747699   -1.35320256905158
H          -1.27164622710663    1.64218305615353   -1.68209511649288
O           2.38029713220790    0.61899156078212   -1.46715429157798
H           1.57117723612176    1.07015698112267   -1.73194399008391
H           2.45091462530633    0.76433280046333   -0.49922007306615
O           2.12494752298435    1.01398402867324    1.19642498829324
H           1.44600953455016    0.38294373708216    1.49456230450649
H           1.65568759641406    1.85660577121992    1.18889735714503
O          -2.87770080224266   -1.72541114600319   -0.55020767566940
H          -3.47156588526882   -2.25783494426527   -0.01978391431790
H          -2.78615411705545   -0.87006447848261   -0.08144391028470
O           2.13892069632303   -2.00411290338879   -1.64525417182189
H           2.81979911181896   -2.38431746346749   -1.08851557561266
H           2.34994359347202   -1.03800390390523   -1.71316182036703
N          -0.23541581491344   -1.23776747235623   -0.70749728817373
H          -0.14422784879027   -1.04234452183558    0.31755657544674
H          -1.13017934037751   -1.73354288192081   -0.85559793035359
H          -0.30272640003617   -0.29629277183304   -1.15052697660432
H           0.61069428571321   -1.73432421556015   -1.07994618440871
