    26
        -50.46815514  Gyration_radius:  2.43749486941 Dipole_moment: 4.325
 S          -0.31235769095015   -1.17407117449377    0.13880061250772
O           0.03869053358826   -1.14401161986111    1.55944695945611
O          -0.19183563352158    0.34826511706556   -0.29702595563143
O           0.67319719707409   -1.88141081382534   -0.66375568978119
O          -1.67519533179041   -1.58017115688795   -0.09534677078399
O           2.64104980656801   -0.11283264129659   -0.76876379283457
H           2.40855077564836    0.33736527687299   -1.58553293216451
H           2.04048460740080   -0.89155456124597   -0.72358436267260
O          -2.37200006848835   -1.19829090696197   -2.62526788205583
H          -2.73508690070322   -2.02010554297838   -2.95951874788300
H          -2.21405138784823   -1.34471874880303   -1.66726663362220
O          -0.09691511692037    2.60695112205034    1.84234426438683
H          -0.82756937780770    1.95876854257877    1.70791977260223
H          -0.29069526793685    3.04438343685677    2.67350924471004
O          -1.93320852340098    0.64533425966192    1.87970594090880
H          -1.30203250318552   -0.09417466362401    1.92540362371691
H          -2.49646829985984    0.43130091656788    1.13210613910816
O           0.15582562070076   -0.30008029343042   -2.78454336994681
H          -0.11247567484152    0.33896249356455   -1.28631748852673
H           0.48187101783804   -1.11559465768689   -2.36962644885461
H          -0.77443436332162   -0.49572265541760   -3.01277226089646
N           1.80824884308630    0.74798538119165    1.61306809626810
H           1.18473361633189    1.59696553404022    1.64287451947086
H           1.14984702545653   -0.08289496092019    1.72640731701192
H           2.23383482085295    0.61085938178688    0.65999451825080
H           2.51799228601191    0.76849292520661    2.33774132723643
