    26
        -50.45921399  Gyration_radius:  2.64573590432 Dipole_moment: 3.270
 S          -1.38223792243157   -0.96693820190076   -1.54082487723155
O           0.00366264737258   -0.85003395573746   -1.94410225992560
O          -2.16556854992479    0.20637227691672   -1.93713143058921
O          -1.54972061507740   -1.26276027338569   -0.13084177443018
O          -1.98569977828377   -2.19206765022207   -2.33903992478888
H          -2.85340224202027   -2.27273002135107   -1.95605846823520
H          -1.01231537754209   -0.02479451505020    0.80708791844960
O          -0.55398880863194    0.73285814128900    1.24194444663279
H          -0.39084595136851    0.43054672516807    2.16478329883703
O           1.69324350562052   -0.20230820770186    0.07117885490467
H           0.98741147460455    0.24645736760165    0.58298726660675
H           1.20431090168711   -0.69665372534188   -0.61149727296128
O           2.24446997796640   -1.64387213204823    2.28996302565611
H           3.11754633611681   -1.39038604930915    2.59224801257633
H           2.12689584713011   -1.22688786758649    1.40868957712573
O           0.06391533548372   -0.57466856627292    3.48325445276578
H          -0.57636099175838   -1.28614008746768    3.54232073232754
H           0.88676796798717   -0.98913188964810    3.14230679219505
O           1.40124390708903    1.44735622127587   -2.13796471737797
H           1.96109091356750    1.14541410695909   -1.40476333228957
H           0.96377495671354    0.62637052737429   -2.43374557570716
N          -0.84097942347386    2.18826747961617   -0.97145619467873
H          -1.21877075373929    3.12417226719585   -1.06822453629433
H           0.10270746707980    2.07615060314894   -1.45395246830600
H          -0.74574964473084    1.90837110244511    0.02428602226476
H          -1.48140120960937    1.44703631433415   -1.42144753764976
