    26
        -50.47676525  Gyration_radius:  2.44762823692 Dipole_moment: 3.266
 S          -1.38372504632570   -0.15645757923774   -0.43123092495019
O          -1.36239935330376    0.91928459849400    0.53845470927306
O          -0.64975978823357   -1.32616053388972    0.03931183178092
O          -0.89086581798739    0.26925037706565   -1.74449948192254
O          -2.87830701979510   -0.57069184531923   -0.60227665039520
H          -2.86158275746277   -1.16144080644757   -1.38002429293506
H           0.61929184198999    0.82705202399810   -1.65358278866467
O           1.55682362144088    1.12962298447856   -1.54661960977135
H           1.82849046867054    1.46188160648488   -2.40372347640969
O          -2.24563528179667   -1.63437711417568   -2.94029363178655
H          -2.72162075347599   -1.28654688959894   -3.69791404346131
H          -1.56690851339542   -0.96977845094396   -2.70673434449350
O           2.00144807160583   -1.12892516858379   -0.01833667256351
H           2.08954117763840   -0.40416613700064   -0.65879388718869
H           1.05637032753517   -1.38834749601310   -0.06966584551303
O          -0.80384022058128   -0.72207214311641    2.59619460036103
H          -1.29354777742651    0.06663779576119    2.32105836327248
H          -0.78000005281833   -1.24221363194259    1.76688665173970
O           0.89386378109763    2.29748276739248    0.85771626800166
H           1.28832369930787    2.11438874690810   -0.01148150356637
H          -0.02826367101118    1.97583870456226    0.77244261337065
N           1.65426690111056    0.18755647374099    2.22780545627977
H           1.95837822197342   -0.42145943483405    1.40752126889662
H           1.44941574916660    1.14569635453312    1.80971624142800
H           0.72491799249236   -0.20297101199536    2.56034506182264
H           2.34532419953685    0.22091580973217    2.96772408734368
