    26
        -50.47068672  Gyration_radius:  2.53199823545 Dipole_moment: 1.450
 S          -0.23879455782451   -1.60335079233842   -0.66469127854333
O          -0.17719139308441   -1.10938981195752   -2.01595109245075
O          -1.05916430696516   -0.72573939218813    0.18153261172515
O           1.08323117150337   -1.78986932678397   -0.05991352066187
O          -0.93818863356882   -2.99684852059857   -0.69600219226712
H          -0.80397220836059   -3.33027850710078    0.21348631312606
H           1.87960968998748   -0.37728483621745   -0.12410757464595
O           2.28446940080935    0.52516901524086   -0.11811046638867
H           3.23355729548395    0.39252494403565   -0.09413020159725
O          -1.13943529877659    3.01857320218929    1.31286538643940
H          -1.81113921229460    3.07802006086787    1.99354093247019
H          -0.50958414683971    2.30974192952713    1.61453276562709
O           0.77397597766732    1.35360656601074   -2.25740217146656
H           0.51578512151843    0.42313787157586   -2.42367095222103
H           1.44858296193744    1.29025476327207   -1.55876599395409
O           0.33098106511491    0.90756544560317    1.83933230379887
H           1.15217377624048    0.94425178481877    1.32658043387108
H          -0.20093503681490    0.21325620014493    1.40665273204794
O           0.09779087847906   -3.47326871181832    1.68775269974980
H           0.64424483302235   -2.78765869195058    1.25225040637675
H           0.65635037391051   -4.24773895679139    1.78488495471703
N          -1.47051489969541    1.61639734340164   -0.92961178783242
H          -2.29928578948687    1.73794505935013   -1.50017447820002
H          -0.58355765418752    1.69189208760075   -1.52252573039268
H          -1.43495009686496    2.29906276190972   -0.12965682517728
H          -1.43403931078941    0.64002850232988   -0.51869727419191
