    26
        -50.47024430  Gyration_radius:  2.41226641979 Dipole_moment: 1.705
 S          -0.85397920513071   -1.68483288851786   -0.69631375235504
O          -0.20709384470371   -2.34573157652833    0.42046045528103
O          -0.05940309681976   -1.65268984233450   -1.90160629763988
O          -1.36269801111566   -0.36096459239635   -0.33496468501851
O          -2.16231775592740   -2.52418186741453   -1.02273457884802
H          -1.82674550596866   -3.37311366487772   -1.29260959698548
H          -0.38975621421528    0.50640051527211   -1.46551200768846
O           0.16996754765248    1.13055242559693   -1.96867776279804
H           0.43585472760170    0.63209843053652   -2.74488232866215
O           2.13083546670058    1.09467076818458   -0.08289037548480
H           2.31813186035971    0.12707182023621   -0.12185046728632
H           1.55338218765526    1.25909550251170   -0.85512647830463
O          -1.47974024178679    2.39635789178366   -0.01313195625909
H          -0.99971808090511    2.55031604443377   -0.83549951404531
H          -1.79814548884296    1.48389985698439   -0.08859380815015
O           2.18099078166857   -1.54069171422419   -0.41356350982688
H           1.73834464682906   -1.59487581851924   -1.27364603962323
H           1.52667761186862   -1.95635150910470    0.17201907339067
O          -0.95713785615253   -0.55694423661807    2.27085064907329
H          -0.50121627621581   -1.40587866744148    2.20760666252022
H          -1.34597036410366   -0.47009364972018    1.37744128194634
N           0.38982416176199    1.67188639721557    1.76121823193891
H           0.69712811584651    2.27533882423390    2.51513591232943
H          -0.04100461285373    0.77956418187313    2.12652274137477
H          -0.35272713648098    2.13087887795936    1.17254627572299
H           1.19651658324016    1.42821847084150    1.08780185544028
