    26
        -50.45921414  Gyration_radius:  2.64604613211 Dipole_moment: 3.268
 S           1.16914134773617   -1.96303588596780    0.05733015065248
O           0.11208401716906   -2.86507045896179    0.52249427003471
O           1.53630145472605   -0.99615792821895    1.07089517096943
O           0.82742397191323   -1.36098687854979   -1.21723313382280
O           2.44375187711753   -2.86621910406170   -0.19144302383003
H           2.16772832353119   -3.40535771280112   -0.92577869162571
H          -0.52839656814280   -0.43990423997516   -1.09928581553597
O          -1.27347917788990    0.16112943928254   -0.86081875736603
H          -1.33890278272422    0.79049056084081   -1.61533446217316
O           1.03771412896665    3.15167423748905   -1.40736147879468
H           0.99650223047220    2.57891287756402   -0.61072264110288
H           0.88111547801989    4.04638258814813   -1.10261730905455
O           0.52809497961337    1.48253405433586    0.65639494393485
H           1.13247294653072    0.71995272754895    0.70983206607985
H          -0.23320194816632    1.13938213163321    0.14230462226718
O          -0.11348063485116    0.04301249060542    2.93523452714976
H          -0.01417839801240    0.90850878107700    2.50687085222953
H           0.63754844112435   -0.46711021556618    2.57734966397040
O          -0.87357880279377    1.89210343347716   -2.85040317366468
H          -0.18628856804480    2.42482810475654   -2.39325551588212
H          -0.40648839386795    1.39478292259625   -3.52431809668220
N          -1.73887099981264   -1.27488238023929    1.33508397677435
H          -1.04300226039506   -2.03939096565498    1.02937831020681
H          -1.86939897529496   -0.66630674821630    0.50350201295538
H          -2.61558768900749   -1.66836792247576    1.65847974045696
H          -1.23502402760839   -0.72090389912149    2.09342180146164
