    26
        -50.45447785  Gyration_radius:  2.44780542503 Dipole_moment: 4.812
 S          -1.73707862171529   -0.82590246454538   -0.37444903252180
O          -3.13193168372324   -0.66428089428531   -0.16782623637656
O          -0.88884658370429   -0.64915109872500    0.77928114151896
O          -1.28889965720987    0.12585585605393   -1.49615238598119
O          -1.45741269190268   -2.24222118627648   -0.94436772344523
H          -0.47467071127096   -2.40114624802010   -0.93398768077215
H          -0.26906062726935    0.12838484722399   -1.63489692902660
O           2.18289944537559    1.20410153192680    0.41704220029916
H           2.79269871862770    1.93650969530003    0.32200665619025
O           1.21595794607556    0.03732191417851   -1.78090267607245
H           1.40688458791657   -0.90587893287163   -1.67854574953966
H           1.61469253139214    0.49330525239508   -1.00165605136772
O          -2.65585702065815    2.06507214727421   -0.00519462406759
H          -2.51662962168297    2.15177922981337   -0.95103277229013
H          -3.03400076420328    1.18373178589653    0.11213228462701
O           1.63079032385101   -1.34876774090584    1.36257738228509
H           0.68635244777799   -1.12155259526814    1.43181249506793
H           2.06742214645288   -0.50673651992819    1.15633092038480
O           1.14137606618690   -2.56896102607949   -0.85961967221699
H           1.40699082509189   -2.18311575099945    0.03320058332698
H           1.38460310466228   -3.49625081683325   -0.84461337881343
N          -0.07996181012680    2.00618104926704    1.46034817982590
H          -0.49003987910551    1.07324004057555    1.47377134665932
H          -0.71915500759815    2.55740382517951    0.89506736454899
H          -0.12044821220381    2.37016908201315    2.40466393008912
H           1.33332473900079    1.58090903764719    0.82501040768243
