    26
        -50.45777820  Gyration_radius:  2.54785118075 Dipole_moment: 4.890
 S          -1.31902780497051   -1.71394436157072   -0.01652974818054
O          -0.40646916618185   -2.22560927777635   -1.03726394115914
O          -1.64760644105351   -0.32225841827186   -0.26526071665891
O          -0.83486300710222   -1.96030672541243    1.32421215342507
O          -2.66910907333771   -2.52795272727662   -0.16106174998150
H          -2.44001889346093   -3.33521148663142    0.28678667238211
H           0.20239510061982   -0.87171437644002    2.09364082028319
O           0.81960115086419   -0.15727784178792    2.36159798281957
H           0.35095855986343    0.66590609460368    2.17532558523426
O          -2.37932888630475    2.19435876181522   -1.25360210382537
H          -1.58443126569408    2.34986206050229   -1.76975338487940
H          -2.37460179438616    1.24902148911106   -1.04983706287884
O           0.74101974550478    2.10128725034583   -1.04341101419699
H           0.15750085475018    2.02863075248389   -0.24345851963183
H           1.49090502422527    2.63529695760594   -0.77570190874703
O          -0.81090810592722    1.74618288568108    1.07661302231405
H          -1.16023136270664    0.90638379296089    0.68903298773190
H          -1.52560242722821    2.37859176278411    0.94319885712288
O           2.86285308736226   -0.71903272552053    0.85247415570448
H           3.10172489365294   -1.60542771248338    1.12827414879946
H           2.14832924652420   -0.43187141232076    1.49026730053303
N           1.46070464035926   -0.47339305049759   -1.38001537587829
H           2.09732588091961   -0.60998795034477   -0.54244831231032
H           1.96247485056109   -0.63726351075052   -2.24661554915855
H           0.65552283302484   -1.17627638845929   -1.28971151877143
H           1.10088237019533    0.51200615765352   -1.34675278008201
