    26
        -50.47679048  Gyration_radius:  2.36806002953 Dipole_moment: 3.217
 S          -0.60343967412135   -1.40157460606962   -0.26755049196541
O          -2.02099831581586   -1.37306657002715    0.02641766236730
O           0.20348197267956   -1.32728481912765    0.95094416059642
O          -0.22600034224811   -0.30885274051480   -1.17877054872737
O          -0.28191039603848   -2.73667873277907   -0.97699956031117
H           0.60929665188691   -2.57228462685509   -1.38304366441176
H           0.74284352425560    0.88081798460180   -0.44129334060283
O           1.24962807994403    1.56536495147010    0.04172021258485
H           2.09609560907450    1.14433114725980    0.23041933367605
O          -0.25534800186783    0.99132405071637    2.19358200455848
H           0.35413608955171    1.45036097016329    1.57644205477338
H          -0.09854362906964    0.04648247411684    1.99412138369258
O          -1.41155689386337    2.09299963394880   -1.38060357507092
H          -0.63488222207006    2.62167366873165   -1.17213206118944
H          -1.06560098137552    1.19410942395297   -1.55000774529107
O           2.72963739911371   -0.83933722032883    0.51955678017636
H           1.78991643232707   -1.03879851666200    0.75712509792953
H           3.27167895113881   -1.32854764009588    1.13995445969296
O           1.93280840260189   -1.76352900757442   -1.91188987958981
H           2.45491847875111   -1.49296679221398   -1.13163747376522
H           1.36755600348791   -1.00455028931588   -2.11036627520711
N          -2.47572388841664    1.06043619630248    0.82742589732550
H          -1.66511217519920    1.14927205759285    1.52352449069412
H          -2.45456204685144    0.04386943592722    0.51696276582869
H          -3.37147169271886    1.31384745635751    1.22888213527408
H          -2.23684732517075    1.63258210042057   -0.02278383306059
