    26
        -50.46659773  Gyration_radius:  2.52160009987 Dipole_moment: 2.519
 S          -1.16472409004904   -1.40048305367573    1.19079779179935
O          -1.50509322369807    0.02528187685549    1.12411730031735
O           0.26473797899792   -1.59623507418103    1.25168236528976
O          -1.84804926189501   -2.17506130466295    0.17968793603368
O          -1.74044311415119   -1.91098502234399    2.58631285803600
H          -2.60975352762593   -2.22330640465920    2.35545261321427
H          -1.03743983945758   -1.40631044650210   -1.04472667550027
O          -0.57871303965296   -0.77728547383032   -1.64042496699828
H          -1.21056407756215   -0.06801622711023   -1.80623591949226
O          -1.72839111098729    1.71816842806497   -0.89298114049019
H          -2.35738114406370    2.38596310829496   -0.61559762255778
H          -1.64723969872662    1.10195099106646   -0.12835718344348
O           0.61532066834914    2.66100391927069   -1.97662927701527
H           0.45680229267621    2.71974658908396   -2.91945040636967
H          -0.23744316805478    2.40816656758638   -1.56966101239949
O           0.75767297078681    1.01072233580597    2.00667324923271
H          -0.16526313951905    0.74591555990272    1.79985066228210
H           1.13379381149004    0.23950828449723    2.44075421166704
O           2.70746029180949   -1.76154282588836    0.09466238739556
H           1.87245928531400   -1.79434664712961    0.59929603850773
H           2.72959714189011   -2.56999602157720   -0.41909201067252
N           1.48375054174578    0.54818224869366   -0.53362622700642
H           0.67729320550691   -0.01571319000121   -0.91236890410686
H           1.57756379056485    1.39073363025146   -1.12040249265846
H           1.25517435844775    0.82580910460539    0.45872662455580
H           2.29887209785971   -0.08187095242907   -0.50846019960686
