    26
        -50.46439463  Gyration_radius:  2.54847966808 Dipole_moment: 3.402
 S           0.33892460028248   -0.75654177395799    2.32419395780296
O          -0.83136538700788   -0.86478814980359    1.46535357180658
O           0.58398044076460    0.61273104778498    2.75887337093804
O           1.51690295961742   -1.36502639033998    1.73969103966629
O          -0.01435528075172   -1.58222792825714    3.63164073157718
H           0.71478966224299   -1.38529908499136    4.21166659715487
H          -0.48313937445955   -2.96407507654495   -0.75265886455382
O           1.62191024500520   -0.38672446618219   -0.68251883182899
H           1.83114535267505   -0.73571688983346    0.21345360784693
O          -0.52646900721900   -2.01342867544115   -0.86137966690337
H           0.92585605564000   -1.00534823299556   -0.97963204948368
H          -0.69958027864369   -1.64161453600159    0.03982615394970
O          -2.15262721445155    1.14507243004123    0.11493673876583
H          -2.02165492618282    0.37312533928749    0.68901000566366
H          -2.16853085073457    0.79783377228622   -0.80961965143789
O           0.87183642489361    1.28609121236194   -2.74517523982326
H           1.39176560743836    0.70701187818393   -2.16765006256627
H           1.24210410003488    1.20985558263295   -3.62530745402570
O          -1.64307083116444    0.11503009987371   -2.28292815110538
H          -0.84482114877036    0.60668058254054   -2.53752139485795
H          -1.34197326379446   -0.74855084591916   -1.96468153259350
N           0.35258267410152    1.75037423352652    0.43227800620905
H           0.68815580347777    2.68916559522914    0.24668711370456
H           0.48694037413905    1.46074135881285    1.44238381276465
H          -0.70630439837756    1.65307077191324    0.23943224365959
H           0.86699767171482    1.04255813524966   -0.14035403251538
