    26
        -50.46793121  Gyration_radius:  2.38866685945 Dipole_moment: 1.386
 S          -0.39386972712312   -0.65705466907998   -1.69542311167991
O           0.95913977586687   -1.09866089958386   -1.97557241672441
O          -0.45176521146070    0.68726987747905   -1.15248700502852
O          -1.13764631720823   -1.61159023108089   -0.89789356157644
O          -1.13261332625076   -0.57015517575608   -3.09872585539850
H          -0.93471684029796   -1.42183762612640   -3.47263193200412
H          -1.16466516372907   -1.20583838354343    0.71707875382193
O          -1.16049296578102   -0.76931170865794    1.59778034672918
H          -1.80795166979834   -0.05208995241455    1.49649409138286
O          -2.54905464470609    1.24465150829347    0.34678112553915
H          -1.83554373720467    1.01011975556028   -0.29086409795823
H          -3.37560235228829    1.03330261114358   -0.08837234160411
O           1.32418279430734   -2.19555248960745    0.51751266908282
H           1.12106829802821   -1.98589697208493   -0.40680704156431
H           0.55351723391402   -2.65440073643017    0.85629445780108
O          -0.14151097942818    2.80496006449031    0.54638944766473
H          -1.07697873353902    2.73074262727814    0.77170228761588
H          -0.06309344921845    2.34278890723812   -0.30283589289687
O           2.74684071179928    0.03159922460222   -0.34850995601074
H           3.13019689516950   -0.80586881571934   -0.06886714643465
H           2.13524772307538   -0.21490722793468   -1.07314965469266
N           1.06308531544313    0.67232668784661    1.62688736769356
H           1.74368032636942    0.37977559700464    0.86786123953177
H           0.24976963802247   -0.01505931953381    1.65641540544412
H           1.53107009144043    0.71476532691058    2.52535950056198
H           0.66770632462440    1.60592200970132    1.34558334069834
