    26
        -50.46461702  Gyration_radius:  2.38878763036 Dipole_moment: 4.304
 S          -1.58799293107991   -0.83300538882066   -0.25233940738945
O          -1.00919734085773   -0.04530397332923   -1.32840617643846
O          -2.06488887684806   -0.00151287659328    0.83865551050824
O          -0.68811645435063   -1.88006007932145    0.19742496034771
O          -2.86517518331642   -1.55876072400532   -0.83194130190688
H          -3.56492143506581   -0.94261218720461   -0.63860810666035
H           0.37547311571421   -1.41306992706851    1.35716560700531
O           1.03277218274508   -1.06452527238443    2.00656687599987
H           1.13252811563818   -1.74742825291781    2.67169651042877
O          -1.58314885962217    2.57412420727229   -0.66032661950304
H          -1.55647715901020    1.64678812613240   -0.93858346249892
H          -0.92844554347755    3.02632827709229   -1.19739037572974
O           2.73682355965166   -0.55899119921367   -0.22485217378110
H           2.33506346851648   -1.17624627083086   -0.87043071432275
H           2.37139393051719   -0.81024615944506    0.63445371111943
O           1.07233741625603   -1.98235456574439   -1.82410787338038
H           0.63820432642490   -1.38052624176922   -2.43392865425541
H           0.42519923948797   -2.12130070143754   -1.10943603205921
O           1.18749878020085    1.47661333840635   -0.82797896165498
H           0.47729271108308    0.95571126721531   -1.24382936856113
H           1.92191187811106    0.82764640731524   -0.67229616721804
N           0.03360960338855    1.42408689599468    1.49741389397008
H           0.53685030076820    1.60314558094113    0.55139908236543
H           0.55156924964723    0.68716964364227    1.99983587784300
H          -0.06595242153552    2.27752915428053    2.03623901106350
H          -0.91421166298239    1.01680093178464    1.26360434469281
