    26
        -50.46464913  Gyration_radius:  2.63266045837 Dipole_moment: 4.209
 S          -1.37943693963744    0.79191703722148    0.65082939184598
O          -0.98441388930146    1.59917469193971   -0.48248399446551
O          -0.44329555753283    0.87190601415079    1.76503459497229
O          -1.57657438335795   -0.61535645569164    0.27232312436668
O          -2.76353447303050    1.33655928823411    1.13927124686482
H          -2.96019807502729    0.79881520761489    1.92590204141525
H          -0.39130850211681   -1.65058567689000    0.86504987384028
O           0.33331499936839   -2.25010631528023    1.15110643895650
H           0.12729495217108   -2.51337075892871    2.04954992710483
O           1.94997657468279   -0.05515023745361    0.99868654358939
H           1.67241640552613   -0.98381652996883    1.10028996254750
H           1.21182994271362    0.44719938891718    1.39974472706383
O           2.34074102810826    2.27437569000674   -3.16956583059052
H           1.60529066629666    2.81022445008685   -3.47642521045445
H           2.97412214488167    2.86533622366012   -2.75652269051950
O          -0.26719629401286   -1.85744304766816   -1.75744936976691
H          -0.94009422140159   -1.43124466644485   -1.19304443583991
H           0.11407985500944   -2.54807565490362   -1.20636899812990
O          -2.32961884935967   -0.61205551793498    2.92982704073644
H          -1.49026669464382   -0.12566255282840    2.85376426351738
H          -2.36696405249303   -1.17856505697389    2.15079199014338
N           1.13860310403608    0.40559838673329   -1.46922057279856
H           1.69604344529092    0.90955334699234   -2.17018652517839
H           0.76069048431357   -0.50494198872792   -1.81527955348318
H           1.66789462943340    0.23564764365297   -0.56725141056129
H           0.30060370009464    0.98006708051429   -1.18837258520348
