    26
        -50.47269135  Gyration_radius:  2.39714451522 Dipole_moment: 3.970
 S           0.29421857187510   -1.34204333437820   -1.05217777420397
O           1.29835672179188   -0.85931268635037   -0.08830342361746
O           0.55987132047146   -0.89056323546080   -2.38904576974292
O          -1.04500264917263   -0.99069475730787   -0.58753372452320
O           0.38290006068360   -2.90692596524461   -1.04255143110363
H           0.24530116203136   -3.12883051888024   -0.10974766980233
H          -1.89309103825751    0.37319175373482   -0.99947397795451
O          -2.32772913927274    1.25756002406885   -0.97792141346907
H          -2.97942486705944    1.19852786332778   -0.27516879406023
O          -1.45936395731645   -0.54439928932751    1.99458452659948
H          -1.42145425808576   -0.73680136292331    1.03338511865452
H          -1.09440700480259   -1.33487520090577    2.40480758718521
O           1.79359787476041    1.34914689180283   -1.88862432004772
H           2.40701610822364    0.98385218635683   -1.24448887259667
H           1.33466545730314    0.55520834112266   -2.25183883301024
O           0.53370573600126   -2.63294040081446    1.65293763223178
H           1.26620065307836   -3.07267167915886    2.08894322478610
H           0.91939147193387   -1.88737541953668    1.13898828552860
O           0.62183240853191    1.07785915546084    1.63135266396159
H          -0.18915430805253    0.62871846673821    1.96471045147679
H           1.03135821174785    0.40026662922040    1.05571268512599
N          -0.06362290648758    2.53584441795071   -0.41481281082475
H           0.65871136175972    2.17786655406960   -1.10353385990465
H          -1.00832505135968    2.16241149781656   -0.69630021601929
H           0.19313017052176    2.07875322472303    0.52309025672333
H          -0.05868212085867    3.54822683396701   -0.36698955137510
