    26
        -50.46854358  Gyration_radius:  2.52659101321 Dipole_moment: 1.405
 S           0.26353830743335   -1.85785827188685   -0.11075087094091
O           1.29916543393117   -0.83334820999068   -0.18390368459548
O          -1.01850522604216   -1.34537126807752   -0.55680895448173
O           0.22553293376667   -2.49581510670769    1.18773536320820
O           0.66174285234877   -2.98298641692401   -1.15082433711454
H           1.37942689968702   -3.42173660983111   -0.70682161089122
H          -0.07854147887615   -1.34475755019775    2.28187200174512
O          -0.28416709933611   -0.59927356603674    2.89939171642860
H          -0.46737913626892   -1.00350239525214    3.74932673568313
O          -1.95275570232976    0.58655256149606    1.06917125404458
H          -1.88746604860017   -0.17399023032992    0.46353154257754
H          -1.54476382183228    0.27689488766511    1.89608931083437
O          -0.83070424491249   -0.07769159820914   -2.87097894522390
H          -1.66622768281289   -0.26623231938299   -3.30174487046708
H          -0.85232131863520   -0.57583093385975   -2.02513283561044
O           1.87637490293192    0.95306092547271    2.01685156379256
H           1.17806842202543    0.54346711745315    2.55003416924406
H           2.11324746870604    0.27556304330526    1.37132602831735
O          -0.00870220630264    2.45353480193349   -2.56631465286859
H          -0.36882800976731    1.55854101363396   -2.76126600648159
H           0.76351046661710    2.55370964550098   -3.12489857439118
N           0.23878249255649    1.59195910698174   -0.03302267157115
H          -0.71729937587074    1.40506952666435    0.37670124680682
H           0.17929648988382    2.15114436248945   -0.90967146185911
H           0.85296225625422    1.98157550183949    0.69352997286874
H           0.64601242546820    0.64732199220975   -0.25342143907445
