    26
        -50.45488106  Gyration_radius:  2.47419195711 Dipole_moment: 0.414
 S           0.16117708448763    1.16523871566008   -0.73737465065584
O           1.23563466120647    0.92168802355977    0.20313631315815
O           0.73681296906803    1.47803320692689   -2.11151982123235
O          -0.77397025837937    0.06986084504121   -0.82049714455120
O          -0.56682749603505    2.44554186779809   -0.37554286613225
O           0.14592373457597    0.26600388702111    2.52583714417579
H           0.62566857209426    0.43058925752268    1.68678982738816
H           0.72017157185412    0.57556515923764    3.22921311048135
O           2.47012246103659   -1.39874816130860   -0.48581834046465
H           2.27920432533640   -0.52449835334271   -0.11018811853897
H           1.74949158065225   -1.96641938609581   -0.11876085482895
O          -3.23704101424485    0.16471356172717    0.21914538534890
H          -3.82961584676277    0.49617833018147   -0.45764566967212
H          -2.38369200850995   -0.01117171428519   -0.22373140070908
O          -1.82635135383563    1.87297748795576    1.68717046688049
H          -2.51577524245000    1.27876292325199    1.30909235784804
H          -1.19700873987117    1.27813282062418    2.15513001548113
H          -1.12082644155361    2.28856111808034    0.52547130692294
O           1.81732057730372   -0.66122190372793   -2.86415961174132
H           2.63069806133363   -0.47749243093383   -3.34046397767841
H           2.09288691135447   -1.06417912049925   -1.97800866428996
H           1.14966283840338    0.60523544456990   -2.48511029285932
N           0.17553486827687   -2.33733044267503    0.56353406648455
H           0.09510441791264   -2.03287243537205    1.52700808037010
H          -0.31825422047050   -3.21653551450054    0.47606672015494
H          -0.31605202279057   -1.64661319642185    0.00122662864640
