    26
        -50.46761645  Gyration_radius:  2.43552135731 Dipole_moment: 5.418
 S          -1.12884173702962    1.42166143968613   -0.36939820498780
O          -1.00689332325215    1.23573102234803    1.07416575275783
O          -1.55611726653059    0.18697240250203   -1.00891909360191
O           0.04619373994756    2.00845214692866   -0.96855576782385
O          -2.28484410512261    2.47840213505418   -0.58487436434684
H          -1.85784436731673    3.07422418282856   -1.19034180557608
H           1.23910999152406    0.76315695891371   -1.31654676801196
O           2.32358133873204   -0.52826543280874    1.14384796868253
H           2.28608972849540    0.41579710899744    1.41142966029714
O          -1.60821348714329   -2.26824806742895   -0.05184097962864
H          -2.51635984579975   -2.56952542587179   -0.00134565527581
H          -1.64272225791602   -1.35844324862673   -0.43020704106064
O           1.55533839409435    2.03303955754383    1.42801636334402
H           1.73893215594235    2.40600106257177    0.56061898930242
H           0.59690714257654    1.86560354773320    1.41977689847761
O          -0.14951969868145   -1.48651214006509   -2.64651461125521
H          -0.33913538789284   -2.28777122265354   -2.15111823216786
H          -0.72946782960619   -0.80401180847243   -2.26947996096827
O           1.79031045585794   -0.03544044543732   -1.38080491579924
H           2.26762147945370   -0.48319595630252    0.15647492031419
H           1.29385057070065   -0.64149135488239   -1.95954417484271
N          -0.07261346587829   -1.11052804127514    1.84917277293131
H           0.98804897850520   -0.98188832164466    1.57155558776598
H          -0.51822823117318   -0.17798102424358    1.65179860396598
H          -0.54740398512477   -1.79805993442728    1.23475361205533
H          -0.16777900725881   -1.35767916096490    2.82788045546074
