    26
        -50.46737625  Gyration_radius:  2.4687628284 Dipole_moment: 5.849
 S          -2.03746668872115    0.03416443636939    0.16189638603909
O          -1.53365013438478    1.12674709923082   -0.63942872341797
O          -1.67903829420526    0.13862179444075    1.56985266127856
O          -1.68790839025382   -1.27237884091821   -0.37766017479092
O          -3.61458878267382    0.13849809463600    0.11127161422897
H          -3.86778818635681   -0.43288716012112    0.82773221285936
H          -0.31719782679427   -1.98520768443472    0.05105783687489
O           0.54242744840235   -2.39484796933561    0.33422787526378
H           0.43184056952477   -3.34145501668396    0.23641757704387
O          -0.37856543107685   -0.19885361149584   -2.63975880882889
H          -0.83142276102927   -1.03462564874023   -2.49771665404164
H          -0.81201893960062    0.41146085011935   -2.01474342657771
O           0.36153322405447    2.95147619460542   -0.22306517761926
H          -0.39554325968015    2.33743942196226   -0.30122838256897
H           0.45960727889553    3.35468911921805   -1.08765233229111
O           1.96134944541718   -0.59196362092929   -1.33842681390955
H           1.64760016933507   -1.34788870100063   -0.82363368391934
H           1.22116657343165   -0.37019294612273   -1.94114910414791
O           2.27168940973100    1.24989176562369    0.53605178620714
H           1.66409306314581    1.98021881078928    0.28124030158383
H           2.30801482764838    0.64603412079898   -0.24688601577927
N           0.86344580964635   -0.28453098454263    2.03230162357318
H           0.95929667026483   -1.21575041778004    1.59846523335353
H           1.49409752546339    0.42129126631851    1.46114436265398
H          -0.15325192806095   -0.01635187532945    1.91751143285012
H           1.12227861787772   -0.30359850668352    3.01217836408027
