    26
        -50.46930595  Gyration_radius:  2.43101727706 Dipole_moment: 7.330
 S           0.95635677315583   -0.35400798912193   -1.02983227363448
O           2.35169082568570   -0.66575255590629   -0.85469158823532
O           0.67151591329111   -0.15137542969104   -2.52462776720586
O           0.10482914429285   -1.48252089222685   -0.56764834713018
O           0.55607490938618    0.85464347627921   -0.30885960447177
O          -0.68246807770435    3.02984769359708   -1.21320845800999
H          -0.07125000364249    2.33755075669493   -0.89083616404049
H          -1.03228610578569    3.46195722056449   -0.43216162811702
O           3.05502796162071   -0.61876370985868    1.64749815692875
H           3.87319202845224   -1.11638139780258    1.69815464637515
H           2.86338611496660   -0.51964057836444    0.67988787485068
O          -2.34060658591545   -0.66906791477441   -0.26651659953253
H          -2.93762771514310   -1.37038176980911   -0.53188816029788
H          -1.42183178368093   -1.01953008769755   -0.40394873228685
O          -1.01182145318538    0.67952679748387    1.79565868429626
H          -0.39919292983444    0.93407313029376    1.06822541160576
H          -1.78937224010149    0.34152321280876    1.32884877472607
O          -1.68550382423933    0.85577002210823   -2.46612626598923
H          -2.08396315123109    0.42954547153991   -1.68562308449247
H          -1.46359573188351    1.76727810169043   -2.18972550610084
H          -0.26235320512915    0.23067074659528   -2.59118758514830
N           0.55017270877513   -1.41669544996511    1.98331579332474
H           1.55748881505690   -1.12166542196833    2.05950902472972
H           0.33837613678496   -2.20844588150228    2.58045426336858
H          -0.08613172068843   -0.58149941505298    2.16590934698519
H           0.38989316669663   -1.62665814590761    0.94941977750471
