    26
        -50.47604051  Gyration_radius:  2.42357189426 Dipole_moment: 3.660
 S           0.32373649815794   -1.07668521128021   -1.07403545233044
O           0.90571236742198   -0.05107864943036   -1.91127743876508
O          -1.12153073556191   -0.99622800914924   -0.99937828745439
O           0.92533891176486   -1.04775340279553    0.27706015844632
O           0.66120132395505   -2.47481957027525   -1.67745851089943
H           1.63083263332976   -2.52591198662988   -1.58458443119140
H           1.08688736033557    0.53408284221117    0.94543796481640
O           0.93807837765427    1.45016900455229    1.25689465541401
H           0.86492170446166    1.97936681687210    0.44336130032074
O          -1.32276607168091   -1.60413482712130    1.57679153096546
H          -0.36941278999335   -1.54864461013127    1.37546032379383
H          -1.70233937980528   -1.66870642316640    0.68552444252265
O           3.09909661821683   -2.19608000451608   -0.67766734477856
H           3.43005842866427   -2.87022317917657   -0.07975089282850
H           2.48658792761285   -1.63858677936231   -0.16075426488201
O           0.32232760843264    2.37163820089534   -1.25082902768152
H           0.56240121270084    1.45679255025198   -1.56082948908044
H           0.71522721371652    2.97322556950782   -1.88510570536332
O          -2.19557549902273    1.42623673884233   -0.69501375313884
H          -1.95240164826350    0.51400341385121   -0.95787447759537
H          -1.44473876864441    1.97000091576773   -0.99047299998765
N          -1.59128028465152    1.02087643592942    1.82287350324522
H          -0.56597473964792    1.30286161196644    1.77548277303525
H          -1.99703420653162    1.27165533082644    0.86646955474238
H          -1.60377309073638   -0.03669827028826    1.89203961030507
H          -2.08558095187428    1.46464150186483    2.58763624836062
