    26
        -50.46391718  Gyration_radius:  2.54460330145 Dipole_moment: 1.837
 S           1.58772210838008   -0.18896193213264    1.01902531658574
O           1.40937698333223    1.02637632007809    0.24548137389805
O           1.41380840529857   -1.37610457545272    0.18048966166913
O           0.78712060727609   -0.24264774552611    2.21947476259493
O           3.10147596788971   -0.19923399055935    1.49228878999353
H           3.04428468188760   -0.65551026589099    2.32566804460934
H          -0.84995986387783    0.17285895754101    1.99676098976560
O          -1.67766317721253    0.45847250291495    1.55345633189415
H          -1.52737791664605    1.40508950154679    1.35342248666469
O           2.25269990209399   -0.92278107148740   -2.32959131305053
H           3.17877583766528   -0.67918201101380   -2.29824287498835
H           2.00845219236022   -1.17532882100210   -1.41645978210067
O          -0.62698661466450    2.73930725188882    0.61519899059565
H          -0.78200271422600    3.04234162562549   -0.28200881882742
H           0.21297058017726    2.24186568961928    0.58830333397508
O          -3.40167949914527   -1.55936879289049    0.45961860882823
H          -4.15735742969834   -1.95467640988921    0.89517939107194
H          -3.05688352254414   -0.88652629648509    1.06283053473024
O           0.30667401677715    0.95926529081772   -2.21211368725388
H           0.76226417640387    1.20649489138105   -1.38462258210364
H           0.94151587127492    0.35135007530141   -2.63304707054399
N          -1.00207703011006   -0.76770446213351   -0.71321062417422
H          -1.35886036930328   -0.23087609095700    0.12841271975218
H          -0.13429127447175   -1.25677842429081   -0.39760523640394
H          -1.73438996123978   -1.41562270271069   -0.99829975188441
H          -0.69761195770197   -0.09211852438379   -1.47040958524264
