    26
        -50.47070500  Gyration_radius:  2.37738957001 Dipole_moment: 3.892
 S          -0.49602666560682    0.96131806151034    1.11246907676159
O          -1.37029025628568    0.73202113580452   -0.01368460313719
O           0.46920762869890    2.02262663580158    0.88828999185882
O           0.15352101076542   -0.26167287798972    1.57559072436563
O          -1.42691616118540    1.45335830054256    2.29735183937081
H          -0.84787409817115    1.91169353714616    2.89856946048900
H           1.73155856106742   -0.12288409986073    0.95691893492231
O           2.50065191158712    0.20485758975911    0.44726297568444
H           2.47829144363434    1.15587477706580    0.60090385253876
O           0.20613238650724    2.31038218991337   -1.72393266387153
H          -0.72134485113469    2.05960750621075   -1.78402971007938
H           0.36631121838762    2.37464510938437   -0.75758675720922
O          -0.26514620269847   -2.84584055364276    0.56686291730923
H           0.15773257222748   -2.11711830057683    1.04333635707365
H          -1.16515887255521   -2.86347958080961    0.92295443165527
O          -0.67023519671678   -1.34113101954242   -1.58036539767433
H          -1.09556968726198   -0.62118160913197   -1.07507809986523
H          -0.51398777820629   -2.05246512116780   -0.91244925949158
O          -2.38898226004834   -1.36056374245256    1.63013077738403
H          -2.89580865865355   -0.78245600917942    1.05559981839418
H          -1.56269945257022   -0.88895867428608    1.79387339136524
N           1.49893247402233    0.00548650503028   -2.01473160759195
H           1.07985440754302    0.97246470587844   -2.08360003184320
H           2.03765236547795   -0.02156132134819   -1.10886174569108
H           0.65570900141224   -0.66742671842941   -1.92447365304636
H           2.08448516971369   -0.21759643557584   -2.81132100964798
