    26
        -50.47230364  Gyration_radius:  2.43533433448 Dipole_moment: 1.604
 S          -1.04300883341871   -1.70615953225029   -0.66723384162256
O          -1.49209246975903   -0.37455521913086   -0.28604643053530
O          -0.93625199820148   -2.61903210855617    0.44647841112161
O           0.15838987304293   -1.63254372086142   -1.48378639017585
O          -2.18809674912851   -2.30143541647653   -1.59571842027463
H          -2.23192842204930   -3.19733777840220   -1.27955905631620
H           1.49709455881432   -1.27884640525165   -0.69072669451509
O           2.29347561908430   -1.03614877931152   -0.14794477893961
H           2.98369235762539   -1.65033689741274   -0.40175564403965
O          -2.13645100461691    2.07490602120094    0.47626777513960
H          -1.93857774090107    2.51959354002112   -0.35281675194365
H          -2.18461216456311    1.12824058825634    0.24811342502129
O          -0.18572758587012    1.13145360886636   -2.00812350328491
H          -0.70667831922486    0.57323615343885   -1.39024196145217
H           0.16501344843993    0.50242560604928   -2.64340236771290
O           0.54608545870957   -1.05572109646281    1.97892423610548
H          -0.09752652191024   -1.65827148645001    1.55237751734109
H           1.34138699175556   -1.11889522022660    1.42331441898859
O           1.82781098967873    1.66818271181562   -0.32677724851902
H           1.14673213602659    1.61397815351441   -1.03615542687184
H           2.20765343305978    0.77369473372009   -0.28141455017489
N           0.19044802776322    1.54716715931079    1.71708897281229
H           0.91204105722481    1.71522317357811    0.94413570365523
H           0.20441929548031    0.49880931443841    1.89791323830441
H           0.41867198848475    2.05938534578960    2.56146312580576
H          -0.75196341554616    1.82298753079214    1.34562623208404
