    26
        -50.46370857  Gyration_radius:  2.54312982987 Dipole_moment: 4.176
 S          -0.92694696785222   -2.02839008025539    0.46557905987200
O          -1.53468781606266   -1.23066912085766   -0.60804272713154
O          -1.11415566705454   -1.41570203232774    1.74992417247315
O           0.45510398480978   -2.36959898752477    0.14691939484338
O          -1.71453349443503   -3.40746702381107    0.48482117841776
H          -1.43023344114422   -3.86161222693114   -0.30347772685074
H           0.91087891726947   -1.53821437850934   -1.31826165715424
O           1.58761294846090    1.43866037745835   -1.40982957812133
H           2.36362773326408    1.60523983818790   -1.94630619048182
O          -0.66659055907203    2.95725613845518   -1.36403584202396
H           0.15954367698965    2.44459170935922   -1.49002206216329
H          -0.39823552123361    3.82438519327387   -1.05577456145522
O           1.06888504477652    1.31243569573058    1.31868404880616
H           1.48194203320407    1.36411517884871    0.44207188136501
H           1.35703937864059    0.45398167275110    1.71862318782968
O           1.53443908196054   -1.12176123958242    2.24345545266201
H           1.39450110275372   -1.66400310022303    1.44589663780785
H           0.69041730262391   -1.20540056870861    2.70497208913462
O           0.69300310583633   -0.92680511331220   -2.04834211280859
H          -0.27214852340104   -0.87128401177868   -1.97378190836615
H           1.26290086784851    0.53125913111279   -1.67525570293650
N          -1.40658709368171    1.15043636143974    0.49900752660856
H          -1.53574801682909    0.20276464645258    0.05044881198151
H          -2.13057103357555    1.28948390156303    1.19515418421749
H          -0.43255218606815    1.17262788856549    0.95995815353229
H          -1.39690484802832    1.89367014062505   -0.23238570005917
