    26
        -50.41603817  Gyration_radius:  2.67383858329 Dipole_moment: 5.185
 S          -1.90440196661535   -0.89471734176629   -1.79638135095625
O          -2.41543411978472    0.02990094078247   -0.80245091055439
O          -1.12719144737930   -1.96168478429059   -1.19500426911838
O          -1.18906337586809   -0.21684550088696   -2.88256934309410
O          -3.15681799123040   -1.56279122240230   -2.51946173956908
H          -3.06232648623181   -1.32069151591623   -3.43700504693043
H          -0.00721596343000    0.48173427663096   -2.40252636419383
O           1.51218206397419    0.68185191832922    1.50987516129016
H           2.28547034360267    1.12121071009959    1.85637674099913
O           0.82134040172938    0.95270514682979   -1.98212083986045
H           1.37845139464503    0.21626025390182   -1.47350790435793
H           0.47548484440878    1.56046897328692   -1.19923269546901
O           0.19553039490810    2.24063715619594    0.07845876723396
H           0.52871294014983    3.13519408833062    0.14437133799769
H           0.75372912356675    1.64523170441323    0.74550554966689
O           2.11049423202536   -0.62161417568656   -0.52236368592551
H           3.05829817250123   -0.63768407115774   -0.65277693356997
H           1.92293483521694   -0.10451302877130    0.38276176668040
O           0.29254641929413   -0.53386600380440    3.58746778128999
H           0.83262826014191   -0.04634352970832    2.92414235859549
H           0.73721595814663   -0.43636179522902    4.42867666050942
N          -0.80653126612132   -0.75010764177887    1.06910636238111
H           0.06535931058530   -0.20884256676531    1.18104659581862
H          -1.05661173632959   -1.09564967306173    1.99562171121624
H          -1.55255715222390   -0.17003370237383    0.61409285911393
H          -0.69222719968184   -1.50344860520017    0.34789744080704
