    26
        -50.46930590  Gyration_radius:  2.43104249316 Dipole_moment: 7.327
 S          -1.06199808006648    0.82761039772184   -0.53598461305722
O          -1.38756319096458   -0.62208861071260   -0.46750257538820
O           0.28241424275596    1.02724419096327    0.00589289853565
O          -1.19212385972296    1.31414556732819   -1.88551358543522
O          -2.06742282519036    1.56286344172254    0.36134577677799
O          -0.52143701931766   -1.61084125573040    1.76963406526925
H          -0.89419790764438   -1.25628165709221    0.92040719347769
H          -1.14489039569004   -2.26823693787573    2.08239941104215
O           0.72742325817737    0.46354876857740   -3.41844396929864
H           0.41050362102597    0.56996364729311   -4.31722291965064
H           0.05627220407761    0.91416077024558   -2.84461119266649
O           1.03343127051880    2.21954367202245    2.26372902057571
H           1.92669757572999    1.91096452430742    2.42526100591462
H           0.81047532508577    1.94345799112013    1.35220435309097
O           1.86101967157729   -1.03604582643583    0.41679852450971
H           1.32329670476124   -1.45396368868624    1.10449920744665
H           1.43597747460550   -0.15639528291512    0.29495094816085
O          -1.26929358268148    0.87338228638094    2.69831625496306
H          -0.48581988224306    1.45332616802046    2.77737156174306
H          -1.83119071554017    1.32420176619701    1.31508073049503
H          -0.92258999849359   -0.02562815775998    2.55268395971400
N           0.59310740843697   -1.62981732018858   -1.79867876891792
H          -0.32759960947832   -1.32993591807789   -1.35031548999345
H           0.79275716885898   -0.91262271277059   -2.54250197067597
H           1.29656244515182   -1.53216088746160   -1.00399324012295
H           0.55618867627152   -2.57039493618644   -2.17580659649464
