    26
        -50.46021487  Gyration_radius:  2.60102806835 Dipole_moment: 5.794
 S          -0.26866798173784   -1.89013084169057    1.11429682790542
O           0.33281149503253   -1.18216825020073    2.24364583459492
O           0.34034030436966   -1.53292735271387   -0.14489514623857
O          -1.71563895103439   -1.73727610420749    1.11754978036061
O           0.01925073942327   -3.42729324638484    1.34321356701705
H          -0.50574030633028   -3.61994556196079    2.11329785855926
H          -2.15919804403791   -0.31273593601977    0.59462956237753
O          -2.33448706157514    0.63039678497357    0.32116454380005
H          -3.27087990161226    0.77819286883587    0.46399248679691
O           2.18770877904717    0.22677544838517   -1.12851018136858
H           1.75429151919016    0.47482134184333   -1.97426546236657
H           1.63354320720982   -0.48068800780471   -0.75670550187010
O           0.70919421997400    0.71915833826845   -3.33332905716632
H           0.93427492171511    0.17629440820037   -4.09005370526296
H          -0.09575405300272    0.31083227341119   -2.93769526835741
O           1.97131957621632    2.21254773445146    0.48961958694200
H           2.07402292371335    1.48814451611497   -0.20784787485551
H           2.78939748194288    2.19733937799791    0.98863518792966
O          -1.27670646940140   -0.53499119090566   -2.05626948415755
H          -1.77913223393860    0.05813975364996   -1.48407918947605
H          -0.71318204680032   -1.04565754593434   -1.44555367761455
N          -0.13300092247651    1.31773398850325    1.76279800237980
H           0.10597362180735    0.30553361542338    2.02155063976961
H           0.70580171022813    1.73536404058923    1.23968780661827
H          -0.96928966508339    1.27543169751661    1.14705595928841
H          -0.33625287285165    1.85710784961746    2.59806690441261
