    26
        -50.46340350  Gyration_radius:  2.42440926599 Dipole_moment: 8.429
 S          -1.07790329056043    0.20053044452839   -1.57168644021190
O          -1.83504809164633    0.26004286315761   -0.29976409784168
O          -1.40115452032085   -0.95913843343689   -2.34737479889855
O           0.36630292076608    0.22917802996719   -1.24754297362857
O          -1.41160847096410    1.48437851089377   -2.35947275576867
H          -1.56835529211243    2.19799755970197   -1.67394294283487
H           0.55390943018745   -1.43660233153764   -1.25724967130058
O           0.53005185459870   -2.39380227897477   -1.02777333447231
H          -0.08920631108314   -2.74795711843171   -1.67406370281684
O           0.57049950994355    2.13720425388267    0.62168377005148
H           0.75055255969704    1.60947833346405    1.40722319095083
H           0.55659123605100    1.50300491977842   -0.12031398679579
O          -1.83115504522497    2.95527742720377   -0.27733235750048
H          -2.23793180709810    2.14337612611037    0.05703243793432
H          -0.93768000547427    2.96179113479363    0.12063936487407
O           1.36404006316642   -0.15444307011122    2.28145022360142
H           1.93906662979338   -0.26970268410770    1.47953958967316
H           1.94554503895123   -0.18421807107553    3.04191163163760
O           2.65817532567861   -0.56951628510433    0.02093554377656
H           2.04444979190923   -0.08109550951024   -0.55227194262715
H           2.60545459029363   -1.48248344350999   -0.27649138639684
N          -0.70398703943708   -1.50296646492038    1.16183203293865
H          -1.32747117915394   -2.07496682290130    1.72064497367556
H          -0.21694956467939   -2.05934007682162    0.41110810799933
H          -1.25758480995457   -0.73939952310081    0.61277257879655
H           0.01139647668946   -1.02662749982838    1.74850690516741
