    26
        -50.47114373  Gyration_radius:  2.44214203667 Dipole_moment: 3.981
 S           0.46678059134102   -1.09687646576797    0.02990970911350
O           0.79127299808793   -1.23577569594646   -1.37580703443043
O          -0.96965038649355   -0.88577970868031    0.23817950038433
O           1.22444140429172   -0.01257584223176    0.66219078419804
O           0.86130201706293   -2.43719678328575    0.69782466374244
H           0.84062823667026   -2.37412710206118    1.68749400868867
H           1.93944634529600    0.82263499405193   -0.60367878179121
O           2.11737667996929    1.10719774464399   -1.52910483725427
H           2.12935066793063    0.26494299116802   -2.00155638478570
O           0.63117002561284   -2.25742013674732    3.30654840237150
H          -0.05945772193327   -2.83694174370208    3.63425985551140
H           0.27946337703657   -1.33724641748710    3.34247529911223
O          -1.38430588979855    1.71260822373806    0.34606864656908
H          -0.98726555626573    1.95243457843412    1.18795874531442
H          -1.30698321693428    0.72930236707394    0.29233756278561
O          -1.35396746820920   -0.40250559911413   -2.57457003194530
H          -0.53543401192585   -0.85503584181662   -2.25565072922903
H          -1.99562559922818   -0.58353237843396   -1.88070149884773
O          -0.39809332442857    0.11075608230402    2.71503865028579
H          -1.08349582376408   -0.27632798424748    2.15302728033796
H           0.35185609124624    0.23597865695105    2.09521967086821
N          -0.31308252258047    1.96435674784134   -2.05555092805148
H          -0.78567437700502    1.08903405345100   -2.43427270861548
H           0.72139779617288    1.72939476617904   -1.91911822797388
H          -0.44977489170351    2.76802334943346   -2.65784836396819
H          -0.73167543040816    2.10467717422274   -1.10067327238541
