    26
        -50.45197917  Gyration_radius:  2.62879450138 Dipole_moment: 3.138
 S           2.15344753063580   -0.37112591018926   -1.17782570323621
O           1.99741563632207   -1.71750259326151   -0.62335603395171
O           2.78675135508237    0.53783325677888   -0.26494275643574
O           0.86109344173625    0.13400903263785   -1.65120070534705
O           3.07377099031293   -0.51938914242233   -2.45643428073262
H           2.65415853837755   -1.19470967105789   -2.98370977049363
H           0.48129362809381    1.06223130954289   -0.41176076466010
O           0.34326102131389    1.54476940857991    0.44862165277491
H           1.14787963868873    2.06406879691676    0.54058673695587
O          -2.13480019631474    0.19416240074855    0.98326133722783
H          -2.14014069995378   -0.06134172475898    0.02615011202686
H          -1.40912205412886    0.82358380743675    1.06120368402515
O          -1.26544707765347   -1.95651436314796    2.18668690647045
H          -1.51249530964067   -2.69907231348072    1.63249530020533
H          -1.75088628973990   -1.16702310731085    1.82180552222282
O          -1.83289881045303   -0.20105317301813   -1.62482917533474
H          -2.05914118314190    0.71798229822302   -1.83833052468673
H          -0.86928578000224   -0.24670371614746   -1.74628335728424
O          -2.02097993274656    2.52914594523486   -1.03658818606021
H          -1.17193866947581    2.45143691041092   -0.58303886225890
H          -2.70041296716268    2.44105503404192   -0.36331089479257
N           1.07690916026586   -0.87476112014756    1.63735811443715
H           1.48845070543002   -1.33951934594425    0.76037121730641
H           0.83289746540837    0.09546508171070    1.34997320393503
H           0.19422967800647   -1.38908453245519    1.93997015978760
H           1.77599020073257   -0.85794255892779    2.37312706787350
