    26
        -50.45973441  Gyration_radius:  2.56686375658 Dipole_moment: 5.056
 S          -1.58299623980213   -1.79153685161001   -0.01426927556806
O          -1.90199581629615   -0.91546727656845    1.11522478658696
O          -0.20395251349745   -2.20510269845740   -0.00211251709970
O          -2.01721307954936   -1.22260671329964   -1.27831900287292
O          -2.46260603641005   -3.10032198963554    0.19831375574526
H          -3.34222660130270   -2.78359743442504    0.01710827575251
H          -0.68841018190545   -0.57503864466662   -1.77470783735975
O           0.20711022066837   -0.23526817268077   -2.05606106351296
H           0.45934159387019   -0.78784967119075   -2.79780542186532
O           0.06484615805132    2.44013101928343   -1.22167146202103
H          -0.57929328423643    2.31093510673050   -0.49636225720862
H           0.03655157599875    1.61349884900393   -1.72411149741436
O          -1.43401625300383    1.70695619775816    0.89913430703445
H          -1.73486783746363    0.77748117929902    0.89094412630774
H          -1.00885735334830    1.83419018311003    1.74966594415911
O           0.38206937704799   -0.83702491763763    2.34789863472562
H           0.56612502431378   -1.76502603568545    2.50924274252514
H          -0.52742763631673   -0.83543926572356    1.95549970283934
O           2.37985175944146    2.34113120014073   -0.03777766302526
H           1.48918817133419    2.51491852386392   -0.46117421011077
H           3.03051336870164    2.73392876731213   -0.62037910150726
N           1.79274301247976   -0.24276969106185    0.16062178961364
H           2.55526552551767   -0.90793089540303    0.09039432290769
H           1.23982720994058   -0.44590892603456    1.04504494969529
H           2.13768733913860    0.75432221535069    0.15707860719740
H           1.14274247663063   -0.37660406778133   -0.65142062551875
