    26
        -50.47073103  Gyration_radius:  2.48422195438 Dipole_moment: 1.234
 S          -0.00381050587113   -1.81922791687271   -0.04694671065961
O          -1.27020303744615   -1.21888811018027    0.35016963127967
O           1.11206094648445   -0.92691403609194    0.21364132538610
O          -0.03124389836085   -2.34263109760713   -1.39392161122984
O           0.23074952791298   -3.06380632639994    0.91334537710079
H          -0.26689479288211   -3.76807106005214    0.51015505612054
H          -0.10503816331262   -1.05153807780968   -2.38628152384632
O          -0.17364196278136   -0.22659271242034   -2.92479669131160
H          -0.28289358000633   -0.51163582263598   -3.83394594729124
O          -1.82228982723866    0.97885638099521   -1.08178392824939
H          -1.88247901534300    0.15885751342031   -0.55504425734617
H          -1.40631857258847    0.70305365698542   -1.91593010505524
O           2.05191687062807    1.02589591728956   -1.75871828454827
H           1.34508603422607    0.72605531678379   -2.35057240318499
H           2.23622923695612    0.26523151811688   -1.19657936361336
O          -0.10280124511985    2.06791167848356    2.86567285428592
H          -0.93880704674943    2.37822477627016    3.21643166537876
H          -0.11633680946450    1.08716722019886    2.95703615165979
O          -0.21267664179928   -0.60734108899475    2.70748577373651
H           0.63598775817394   -1.01928626186594    2.52617950932894
H          -0.76146936164838   -0.82330878225344    1.92945596609333
N           0.35598094799198    1.63474515999905    0.26150768758553
H           1.06487153151533    2.07754830067492   -0.33214587899593
H          -0.56837332105326    1.58487650321615   -0.25457115080450
H           0.66614293808785    0.63777286662534    0.37010906255660
H           0.24625198967819    2.05304448414294    1.21004779561082
