    26
        -50.46728279  Gyration_radius:  2.55422692539 Dipole_moment: 2.969
 S          -0.06374378294244   -2.28814787687071    0.32295956413099
O          -1.07503290010865   -1.95413076237599   -0.67559729386514
O          -0.51532682259586   -2.10221553935238    1.67878198460684
O           1.19451128536541   -1.60041759734040    0.04345363234291
O           0.22304102846071   -3.83442764149497    0.15155649868186
H           0.38353670449323   -3.91915132259566   -0.78228004717916
H           1.37700808524186   -0.07985624167018    0.77041178911142
O           1.22634550342315    0.85234325458881    1.04211740720593
H           0.48257898451273    0.81398039643042    1.66914894426579
O           1.69028690198005    3.36546658342786   -0.26825946292480
H           1.79988676966446    2.63846980358379    0.35946795780069
H           2.38511311480695    3.99654730468398   -0.07881652313660
O          -2.31257730527722    0.37297833726442   -0.17686257290771
H          -2.12897345526569    0.48098368325896    0.77069058974427
H          -2.03852906833706   -0.54425178056165   -0.38336300796494
O          -1.13182621460768    0.31863968641414    2.32650455395849
H          -0.92734277161957   -0.63448103131048    2.13692155613451
H          -1.44229284497305    0.34729132768508    3.23271790908269
O           0.56899422240125   -0.83972699231984   -2.41087584932632
H           1.18311802325838   -1.07208956297400   -1.69118829875450
H          -0.24708272734544   -1.28534031069509   -2.11728616604128
N          -0.13355084013878    1.42135326971710   -1.20924497215586
H           0.46313552361443    1.30582431939426   -0.34875887111030
H          -1.12315869745203    1.18529222732910   -0.91077068417812
H          -0.01776345027159    2.36907536981970   -1.55585857283352
H           0.17964471363507    0.68599107595045   -1.89557007467553
