    26
        -50.45720900  Gyration_radius:  2.4145855218 Dipole_moment: 6.521
 S           0.56896330860597   -1.80486224379293    0.22782088459674
O          -0.27932406475179   -1.59784357664485   -0.90746249469067
O          -0.13347858609739   -1.66663069688865    1.50623450242600
O           1.78164343821791   -0.98475734777914    0.23249672158205
O           1.06757208965932   -3.30675998884774    0.17332237253208
H           1.58741385262924   -3.40478209660807    0.96522728855296
H           1.70918413671861    0.54273934045156    0.71576499552217
O           1.60889121650365    1.48747998308512    1.00938556829048
H           2.45190897913216    1.73741971094254    1.39028399405302
O           0.59975034808189    2.07846440442133   -1.57549890697295
H           0.96841609316034    1.29484992135873   -2.04526906841112
H           1.04515426907265    2.08524445723635   -0.71676935398773
O          -1.82015870976266    1.36250186029144   -0.90973301490975
H          -2.45721338340757    2.01307784161283   -1.20554683994826
H          -0.93233472971253    1.63583095199233   -1.27306942522093
O          -2.73821407111081   -1.17573601441255    0.55634286519147
H          -2.50607926904738   -1.01262821337034   -0.36303780711497
H          -1.99866804914118   -1.68642946246224    0.90482123713651
O           1.53473266355379   -0.29517095443519   -2.37695482442664
H           2.00366511463835   -0.50619854885328   -1.55637245098127
H           0.70830204066694   -0.79259407465666   -2.27565637172429
N          -0.96234758902006    0.81940198434777    1.52544743510284
H          -0.71294545246827   -0.21289198002915    1.57814159610498
H          -1.45160023099417    0.97986639300803    0.59479616732875
H          -1.57388773786546    1.06969781857823    2.29545499959139
H          -0.06934567725665    1.34071052146514    1.52982991037453
