    26
        -50.47100397  Gyration_radius:  2.45415705692 Dipole_moment: 1.246
 S          -1.26788525189349   -1.20371340880853   -1.09831920480153
O          -0.09705097534506   -0.38691927486003   -1.44856632311888
O          -1.69917444017047   -0.91116108609701    0.25548822963779
O          -1.11699124525890   -2.59521311880837   -1.40493602980972
O          -2.44506431457662   -0.67787153340129   -2.05117739124654
H          -2.65015902087541   -1.44324495480235   -2.57934805016405
H           0.82166196108200   -3.10800535066065   -0.43006671740587
O           1.41385550783721   -2.35510578887638   -0.34890766594609
H           0.98570059287675   -1.66861195127019   -0.88355647047882
O          -1.59557720013766    1.80179389700205   -0.98695311867381
H          -1.06217277488319    1.03433808311512   -1.25460474873623
H          -2.49687122790798    1.47705720551084   -0.95288815600147
O           0.03542248686165    2.62946950604347    0.98320364251077
H          -0.66013832128389    2.54114039452118    0.29996850373107
H           0.85724201666922    2.40863332132485    0.51657092261958
O           1.88873761140765    1.17119479024329   -0.48496341938448
H           2.45651024106163    1.38316603208454   -1.22717278910600
H           1.16655258947015    0.62054555495320   -0.84912268279759
O           2.18186018127851   -0.65635261151564    1.58833687991774
H           2.39616577973358    0.05245114712251    0.96038679461463
H           2.01984741181187   -1.43728789433864    1.02252578321830
N          -0.23534546323123    0.26177076644104    2.10298457438990
H           0.73961404370637   -0.16092423396267    2.03153857298937
H          -0.85455554427652   -0.23497146601449    1.40911277300960
H          -0.61260861181869    0.17861839045294    3.03979556415964
H          -0.16957602216777    1.27920359456737    1.79067049685722
