    26
        -50.46755303  Gyration_radius:  2.45487768545 Dipole_moment: 3.677
 S           0.82104594191796   -0.09859782272089    1.76757541725909
O           0.92887911177813   -1.44905393035817    2.25949223334730
O          -0.55553541163928    0.37439618747568    1.67415586454777
O           1.55804802259587    0.16529486566658    0.54433541097909
O           1.52327980607413    0.81786860905282    2.87083081517043
H           1.43847959075019    0.28671636300005    3.65512234333856
H           1.29127401871584   -0.04593462142506   -1.02812496149538
O           1.10718100516569   -0.08240533749661   -2.00130937687673
H           1.92667904939138   -0.36239968657930   -2.41100237524892
O          -1.05056160031475   -1.82287435285722   -1.55828748779624
H          -0.29206023029777   -1.32467456768044   -1.89650768300654
H          -0.67605586925547   -2.41243428454273   -0.87357079016201
O          -2.29993627819332    0.15257215163297   -0.35347483773592
H          -1.82990900857011    0.16695215743267    0.50315193346251
H          -1.99445949757866   -0.67848229350039   -0.80260598316396
O           0.39178886618400    2.62311624303914    0.73177364732947
H          -0.08914088046134    1.92800490344971    1.23108700120103
H           1.29080343910631    2.27672796989841    0.70425897972305
O           0.15174578818200   -3.19666325780613    0.42906497779564
H           0.50058672840504   -2.55896970019796    1.08749059287142
H          -0.33094877534957   -3.85406862634902    0.93298602128752
N          -0.76356543196652    1.84622019310228   -1.52599817588159
H          -1.16517235100958    2.51328444238699   -2.17407234747089
H          -1.52205888838752    1.17665286290907   -1.08837098107226
H          -0.06100023282188    1.24058128006811   -1.97918746385681
H          -0.29938689243004    2.31817026238046   -0.69881277454959
