    26
        -50.46804944  Gyration_radius:  2.48226941007 Dipole_moment: 3.274
 S          -0.54116344180315   -2.19923462421789    0.07617203400290
O          -1.03067476145193   -1.94459844715403    1.42910821116021
O           0.87491949792531   -2.41618195938253   -0.01081422155756
O          -1.00748073005882   -1.15337585147447   -0.83843616677938
O          -1.25882431467579   -3.53684152778001   -0.37820579182319
H          -2.11004457091810   -3.43325959739698    0.03285154715093
H           0.10489566389784   -0.44091010370108   -1.80691369274422
O           0.75760630264665    0.06060601040722   -2.35411874003137
H           0.68868301551232   -0.29004265002315   -3.24266171938669
O          -2.12292553672881    1.24498414701322   -0.29250478540496
H          -1.42933281323582    1.83569693991830   -0.67199727708847
H          -1.91732400325801    0.36112207931165   -0.65083640046864
O           0.14121133525007    2.42538054514173   -1.05330182606238
H           0.68496728041018    2.31477785371835   -0.26059852677491
H           0.42827811682159    1.72696919458186   -1.66411355597968
O           1.53471880447852    1.50561416415277    1.25600224613444
H           1.93435143826529    0.77380730273149    0.68709065816151
H           2.25240099794916    1.83642459627375    1.79688650121336
O           2.49227292705930   -0.33749037432532   -0.26694229694509
H           2.03519763213166   -1.18259590968436   -0.07450715521041
H           2.16315822028351   -0.10005536130919   -1.14907793348460
N          -0.93259482055660    0.60187586951439    1.91935481339462
H          -1.52423029575059    0.97485641276857    1.09399504832199
H          -0.94350722528270   -0.45765710834896    1.80886432928144
H           0.04056388786856    0.95297891577082    1.79793706832025
H          -1.31512258677714    0.87714945350178    2.81676763260278
