    26
        -50.46930594  Gyration_radius:  2.43116918057 Dipole_moment: 7.329
 S           0.41719826279356   -0.75200879480680   -1.16604076905347
O          -0.10855312289932   -0.65085622038802   -2.50323462103975
O           0.70440633914651    0.55526122822587   -0.57491950487190
O          -0.53737450489139   -1.47058308013695   -0.28016972394976
O           1.71437130998849   -1.57234220180345   -1.19799004989821
O           2.95497037493537    1.45394046920211    0.52511803456411
H           2.18224024893122    1.22513784533313   -0.02929900258176
H           2.69278361520391    2.21314241500838    1.04859979892834
O           0.09659942068068   -1.06513990342891    2.20313187155485
H          -0.15200730576662   -1.26696028091147    1.26331810881388
H          -0.07026147156748   -1.86597384438101    2.70264860074565
O          -0.77910118616073    1.46837046606332    1.39580313151136
H          -0.53587940820633    0.79103149552496    2.04294880881635
H          -0.15167379134068    1.31311175001755    0.65319455611844
O          -2.06449033446147    1.05464782369584   -2.65700403714044
H          -1.24409451715486    0.49827834164879   -2.67154297727775
H          -2.53543083563797    0.83992657821488   -3.46427583279511
O           2.64350083660256   -1.15553012941251    1.15495515111560
H           2.13925152169822   -1.47602759761590   -0.28546486280462
H           2.98946210981933   -0.24907768401529    1.03214756374033
H           1.83657084521614   -1.06266084549998    1.69333698499859
N          -2.48187574145087    0.23733196032541   -0.17070308310318
H          -1.99566469730808    0.88538457106699    0.52172695076006
H          -1.81408040169748   -0.59191767435905   -0.24197175036949
H          -3.41082037829925   -0.03382568939219    0.13233794228618
H          -2.49004718819276    0.67733901181258   -1.12665127912204
