    26
        -50.47460556  Gyration_radius:  2.38427138751 Dipole_moment: 3.137
 S          -1.27255028746142   -0.45242582210000    0.40093772476515
O          -1.01916606240059    0.88614798680513    0.93009556653412
O          -1.10663117481127   -1.47218535793056    1.41787482979036
O          -0.40574410545419   -0.71161878473105   -0.75992328957409
O          -2.73701917281369   -0.50897219531270   -0.09312358510576
H          -2.70923486792048   -0.02294977593401   -0.96121188148202
H           0.78851532304431   -1.90089514214249   -0.76978241457545
O           1.47403942636988   -2.58155898981326   -0.58919194471404
H           1.06889687179814   -3.42552275045892   -0.79436765623653
O          -2.13031444091198    0.71884643707146   -2.28610220646393
H          -1.79939863439613    1.59093534926126   -1.99641993766544
H          -1.35692981505909    0.13850241328358   -2.27251390275172
O          -0.92918521048366    2.72673629781954   -0.91403815264701
H          -1.29633175680182    3.54970935758622   -0.58870745404427
H          -0.97113254694684    2.08587190383849   -0.16108806932905
O           1.58102783845257    1.02913979367403    1.54634511262771
H           0.60761507019711    1.12179482370442    1.53511676726397
H           1.82728874343284    1.18446821032522    0.60486536196982
O           1.48242875867046    1.22004144800731   -1.10300656431061
H           0.87267706043602    0.46077277695138   -1.09082899732209
H           0.91928920091572    1.98930280534531   -1.25619233925802
N           1.45153449710792   -1.54412506184623    1.86617962192176
H           1.84724294444221   -1.96578228654991    2.69894211636647
H           1.67476995495723   -0.49081477446510    1.79240364526977
H           1.74811399841356   -2.03180563662789    0.99136674846643
H           0.39019838722320   -1.59361302579082    1.85237091050122
