    26
        -50.47900071  Gyration_radius:  2.40293100109 Dipole_moment: 4.346
 S          -0.21410373380412   -1.54027145019555   -0.21481478669280
O          -1.42871165063071   -0.86305803088541   -0.61097382798663
O           0.29388598769110   -1.03293960763012    1.06691100629446
O           0.83277080808529   -1.47261185610972   -1.22963968571114
O          -0.58181067952466   -3.04072516919780    0.00417720111623
H           0.27834322981039   -3.43718707239120    0.24466276501831
H           1.15521186316587    0.02245114057068   -1.72668033260941
O           1.34759236542287    0.97263518190593   -1.93510413557281
H           1.95530826420906    0.96314408189738   -2.67648584392221
O          -1.31645541419487    1.59258108384615   -1.64445045887906
H          -0.39548082885523    1.56230582787096   -1.95511016525820
H          -1.51861465190854    0.66252532560442   -1.41305025521340
O           1.44166097372915    1.36328517875461    0.79522520435053
H           1.62532789483810    1.37110386815500   -0.15898341154149
H           1.14479659504268    0.44902330853005    0.98857696232818
O          -1.98456040834948    0.05454457784657    1.86671352041155
H          -1.11267662384765   -0.39022221672675    1.85054488967176
H          -2.40903130230124   -0.30068458530716    1.07370701667191
O           2.00810564730499   -3.14496407039359    0.50858483324068
H           1.97038489902825   -2.60822408128344   -0.29912286944360
H           1.90413881383167   -2.51648841848396    1.23160382144582
N          -1.01223385822193    2.30512458008030    0.86275498078157
H           0.02811225624930    2.10229288400377    0.94897957095139
H          -1.50838634605718    1.52345518176802    1.38007638352334
H          -1.26348950150961    3.22135212377780    1.21449748564795
H          -1.24008458922956    2.18155221400753   -0.17259988857443
