    26
        -50.45488106  Gyration_radius:  2.4741915154 Dipole_moment: 0.412
 S          -0.64766104731482    0.74744002753713    0.97442236531000
O          -1.63890753909803    1.83785663583157    0.61591949063935
O           0.58271806707357    0.93681789672777    0.24536069565883
O          -0.42240651271475    0.96878017189592    2.46362997626034
O          -1.24096538735556   -0.55557073206185    0.75419944701273
O           0.78085777333948    2.50929387768798   -1.90989485349606
H           1.02284284275203    3.38781013119177   -1.61204282849214
H           0.86900784721810    1.92122248493664   -1.13422457401266
O          -1.48117360326346   -0.90516457829653   -1.85974842625403
H          -2.25461337346755   -1.44846743713489   -2.02397243200499
H          -1.36248557373590   -0.88282639425371   -0.88680587936394
O           0.59840786413254   -2.45396597567752    1.38339358343407
H           1.11266056706745   -2.32396623785325    0.54978573023328
H          -0.23703089588892   -1.99360106743831    1.20462083753212
O          -1.76821022299788    1.75825914695773   -1.86319583341632
H          -0.88287803852928    2.12446628859489   -2.09417429046504
H          -1.70608927546456    0.79244032897815   -2.04253806674692
H          -1.77028902586147    1.85402482383409   -0.44515530399541
O           1.34802184777342   -0.69363160770376    3.10560820787727
H           1.17103852397756   -1.05315575153845    3.97832328842356
H           1.16325964932821   -1.44057232727129    2.44874611431697
H           0.34085754881764    0.33663042194262    2.76307830259036
N           1.58321769067611   -1.54828705541047   -0.95257996699068
H           1.44486212707669   -0.60487015666285   -0.59794152464291
H           0.89518693203549   -1.68356743971760   -1.68455316477485
H           2.49977119443030   -1.58739547509743   -1.38026086463183
