    26
        -50.46580813  Gyration_radius:  2.41882322669 Dipole_moment: 3.770
 S          -0.00154083231673    1.56470275965299    1.18200805013525
O           0.89703757899034    1.06504434600786    2.21528286023696
O          -1.17108054637137    0.72676924124413    1.00408961408309
O           0.70038540765039    1.81174568352930   -0.06329866031020
O          -0.53663683234393    2.96069453984939    1.69372367441109
H           0.27263181801040    3.42748142226113    1.87350891302309
H           1.31699931364680    0.35194578926714   -0.59621110174736
O           1.61854169129650   -0.50471351667097   -0.97436933545068
H           1.69231982826209   -0.30454789906236   -1.91795040651083
O          -1.11133239007713   -1.96590025627492    1.31648202527354
H          -1.37326505828853   -1.02932953058503    1.37599585775473
H          -1.11039945698732   -2.15315011855124    0.34190373130609
O          -0.74235092311579   -1.95729733263798   -1.28777932735411
H           0.14722325118218   -1.56367963381309   -1.27760995075699
H          -1.32605586570762   -1.22982972496069   -1.55842583852927
O           0.42621315454310    1.19173776486614   -2.82710098369100
H           0.62461848438425    1.74731675549376   -2.06363607127026
H          -0.48653408493930    0.91036600178669   -2.68308273334471
O          -2.00537390565176    0.48230585776333   -1.50300460992758
H          -1.68795394356812    0.64754103366523   -0.58785900545420
H          -2.93011346097290    0.73238144255654   -1.51673208604739
N           1.38923807420267   -1.40624984088089    1.58119318626996
H           1.28789432721666   -0.40995247909256    1.94222276560656
H           0.36652765664667   -1.79070470827947    1.54542049018673
H           1.74288412352055   -1.34243573063777    0.61611429853897
H           2.00012260078875   -1.96224187649695    2.16911465356970
