    26
        -50.45917247  Gyration_radius:  2.53080266346 Dipole_moment: 5.373
 S           0.10481152840198   -1.59018843666425    0.46683549106830
O          -1.27755698938857   -1.38637022926229    0.80789883667334
O           1.00567026710471   -1.17322467322431    1.53186067834569
O           0.48220181866222   -0.94776713818439   -0.79545151134868
O           0.31435137912675   -3.13640822384496    0.25064586528094
H           1.20750860346650   -3.21934538885454   -0.07033640383764
H          -0.44141840091250    0.53432139476146   -0.92148625873062
O          -0.95842027267340    1.31871320682609   -0.65827649842067
H          -1.88304334741472    1.04078377048122   -0.74663201921635
O          -3.16634572971132   -0.31332253865435   -0.68715246245686
H          -4.03984251467418   -0.64660915963649   -0.47862797646019
H          -2.53874562103940   -0.79384516753612   -0.10361366375333
O           2.54438332959928    2.31951493405036    1.23255938581578
H           3.24348320831902    1.93206466907235    1.76245388842007
H           2.57919067417678    1.84900406976698    0.36443602645823
O           2.44864220135184    0.85440087534432   -0.98554849891759
H           1.80754161058693    0.12304413970323   -0.87661986288123
H           2.17447440412321    1.32129804096759   -1.77786507609530
O          -1.50624401242351   -1.70238189290235   -2.60898820337152
H          -2.23147042247936   -1.22061197059819   -2.19231941469361
H          -0.73130064383554   -1.52919351171247   -2.06053573623485
N           0.15472712939688    1.28815367757561    1.73446192801890
H          -0.39939159060010    1.40521932608434    0.83322079747774
H           1.04646295801336    1.84960118140108    1.65023513249728
H          -0.39354632684228    1.55149582908874    2.54576670736961
H           0.45387671966396    0.27165321594725    1.78307881899951
