    26
        -50.46680124  Gyration_radius:  2.60627209035 Dipole_moment: 4.784
 S          -0.19323735781471    1.42391415331800   -0.75182965259605
O          -0.34607806851928    1.88372154854249    0.64424027667819
O          -0.96860509926757    0.22263830468583   -0.98801816397373
O           1.21102622614127    1.24771373634626   -1.06918025583827
O          -0.78150394899078    2.53999518496665   -1.66612328028022
H          -0.36977387436983    3.36027845960436   -1.32841993463059
H           1.90325239354129    0.05860716002355   -0.30749728465843
O           2.24406170616794   -0.71409089877039    0.22583079957094
H           3.19296777892696   -0.59356950454282    0.28607342962101
O          -0.91434942022604   -3.67592488765798   -0.31869331311435
H          -1.47528109339134   -4.15724522049183   -0.92818237559406
H          -0.31843830241873   -3.11812886692131   -0.87906195696795
O           0.20097394693839    4.36811834211854   -0.02154796574627
H          -0.46364938685036    4.96172879616215    0.33538085225872
H           0.11151527921766    3.52401719750521    0.46455711829581
O           0.51835627226191   -1.92654061543711   -1.69447720739178
H           1.31052165003986   -1.72770957365737   -1.17965512136175
H          -0.04003898302134   -1.13035044927371   -1.61535977577713
O          -1.91729818089492   -1.51322613380343    0.85271057693021
H          -1.64089215844385   -2.39110134079381    0.49381302564946
H          -1.85047720494025   -0.89372273991172    0.10178064110488
N           0.13497776611224   -0.36035136649057    1.90231981877486
H           0.24243449987815   -0.36172432246317    2.91067241926968
H          -0.72337939196355   -0.95247220664102    1.57808296263478
H          -0.06427675201567    0.61141748311144    1.52915947519987
H           0.99719172391408   -0.68599224952233    1.42342491195035
