    26
        -50.46028618  Gyration_radius:  2.68182132524 Dipole_moment: 1.714
 S          -0.98730054742244   -0.75694301819307   -1.26888366169800
O          -1.83516067522838   -0.07966815697544   -0.28951145037740
O           0.03851817009150   -1.55226417083596   -0.61671569064872
O          -0.42861818963602    0.19340928555977   -2.22793892520839
O          -1.89033720637634   -1.75660156191225   -2.06016539560351
H          -2.42128121823209   -1.17285596533986   -2.63842002939500
H           1.17175279042052    0.39128852127277   -1.70993796131889
O           1.62238471447392    1.92938060200354    0.82227550941676
H           1.66258365406026    2.81291860691761    0.45439839642648
O          -2.65393245719531    0.25152082943296   -3.60493119528077
H          -2.46180074707301    0.16323317699674   -4.54134880334928
H          -1.81165979451512    0.50328805250490   -3.17257712718909
O           1.98805530335555    0.29025522810202   -1.17751045172459
H           1.92124997670832   -0.61651182393794   -0.85739394442631
H           1.83343081430781    1.30978658514139    0.06845484052293
O           1.90901040976615    0.39080792579681    3.27125364276819
H           1.85661439765814   -0.50353884437932    2.91870932091531
H           2.19579004598700    0.95273689202400    2.54352491397803
O           0.52317230460290   -1.77892928350748    1.93931954772898
H           0.38473699882248   -1.75747933655557    0.96078190914363
H           0.14377719813334   -2.60561374946357    2.24018533980739
N          -0.56668189663530    0.69616663104506    1.80854715600727
H          -1.16362497796610    0.43386636778279    0.95205936464844
H          -0.15672337185555   -0.19425243320510    2.16283888300039
H           0.23286165620384    1.29512538896491    1.49273803479885
H          -1.10681734237819    1.16087426113595    2.53024777723433
