    26
        -50.46753705  Gyration_radius:  2.53512082438 Dipole_moment: 1.550
 S           1.96235193764856   -1.04766442474631   -0.32704116405069
O           0.56836211651980   -1.47278413745191   -0.28485715264460
O           2.34381869766265   -0.30005114136882    0.85981053868590
O           2.29433656545404   -0.35895350303318   -1.55383947358335
O           2.80221933216899   -2.39195798158456   -0.29612129584440
H           3.69452599256110   -2.06884230378423   -0.22607911811355
H          -1.21085900791140   -1.06202726635513   -2.71185984145476
O          -1.13576435371283   -0.45614287377552   -1.97327259645082
H          -0.49523306385625   -0.87352565779889   -1.34387832234698
O          -3.06905017639871    0.48051188682874   -0.29501731245638
H          -3.43205702262217    1.24782735284990   -0.73939342402920
H          -2.42477764263508    0.08156279050886   -0.91000276726917
O           0.60054322616794    1.66500588449380   -1.71819535664122
H          -0.16843123912001    1.13506522030640   -1.98207195501588
H           1.34960688868966    1.03362666820920   -1.78550987418615
O          -1.58107061245583    0.85665339663097    1.94524668003807
H          -1.29283820076919   -0.05208819573998    2.17769125891878
H          -2.21727984025810    0.74111585661347    1.21131608176135
O          -0.61436952942748   -1.64176736536749    2.09345907985730
H          -0.09476697444429   -1.60611396063788    1.26389844885707
H          -1.21616046927228   -2.38185976266335    1.99784172700428
N           0.66660966085330    1.71589995526339    0.92972236704858
H           1.01846884996655    2.55803453316901    1.37200795094333
H           0.56301567492543    1.85099749309086   -0.11523981050475
H           1.36013183073100    0.92818667901596    1.04189726979269
H          -0.27133265047866    1.41929084735448    1.36948807169954
