    26
        -50.45792513  Gyration_radius:  2.59194307415 Dipole_moment: 3.530
 S          -2.05066949451872   -0.23527862326944   -0.89705377050685
O          -2.13891511488823   -0.29102540683178    0.55957387695461
O          -0.67297958117965   -0.33642410248399   -1.34058052315804
O          -2.78665049126514    0.86736569247884   -1.46989680860417
O          -2.75698428392043   -1.56226691511106   -1.43090893900049
H          -3.68171443843847   -1.34220742495842   -1.37571758842666
H          -1.70464588477514    2.02893638451257   -1.05932200876977
O           0.78293310196692    2.25950407249733    1.06891276783156
H           0.70969082975326    2.99642608299921    1.67654632974913
O           1.78802412612674    0.89637201219056   -1.31477499308647
H           1.75551025554186    1.48853399146004   -0.55602708561549
H           0.86935989821696    0.62457853764671   -1.47986393747525
O          -0.94153122149216    2.62672941024364   -0.89235201536070
H           0.08925031204877    2.40721107871964    0.37669872166077
H          -0.47608689511900    2.68633853742651   -1.73040177306553
O           1.70426498870741   -2.68662030752343    2.07791883574052
H           1.80905488743736   -2.61502907449334    1.11859788386804
H           2.02698986759774   -3.55385396848620    2.32414286919723
O           1.53449634706406   -1.71876262748659   -0.62134903690805
H           2.04523315427927   -0.95931187405088   -0.95751051964935
H           0.69115567680889   -1.64855427476454   -1.09891672293949
N           0.28790067565056   -0.38416479341946    1.43081026711120
H           0.57795489795496    0.61116708103810    1.48679847941009
H          -0.74722370528413   -0.39867252523600    1.16021331881229
H           0.81047485798074   -0.85722283604227    0.65783618675484
H           0.47510727385562   -0.90376814721087    2.28662616547055
