    26
        -50.45807539  Gyration_radius:  2.62475418358 Dipole_moment: 2.565
 S          -1.03053014655349   -2.28195939976482   -0.63836784669746
O          -2.08123882970173   -1.51861691150043   -1.24374455601072
O          -1.01590342036302   -2.19428394229313    0.82240265281592
O           0.29501850391690   -1.94620367713655   -1.17754716555187
O          -1.27174907011955   -3.80908631401660   -0.99404983733195
H          -0.56122124241569   -4.28800961793476   -0.57452652162708
H           0.02307882832527   -0.43814971819686   -1.75192499349994
O          -0.35923070632510    0.46036693552508   -1.90418856858617
H          -1.20789111165562    0.27662278102419   -2.32014912341877
O           1.30629549251868    2.36598789677243   -0.87279117428847
H           0.75913931834238    1.71746645815753   -1.35105148644856
H           1.78415138250325    2.86348787872423   -1.53751856870744
O          -0.67695361656622    3.16646231880921    1.00853700902998
H          -0.19514190191144    3.41775164713491    1.79817807183025
H          -0.00652973033059    3.04439061742614    0.31990695352358
O           1.46905155604596    0.94585145586956    1.54905287092667
H           1.76379709795973    0.01268632678398    1.42544638367550
H           1.76293589695786    1.43644939535535    0.76891397751904
O           1.72183314417939   -1.65376389463215    1.04662173448207
H           1.38227310915831   -1.75735707900574    0.13487383624078
H           1.01264445794095   -2.01463515853078    1.59011200937910
N          -0.99966826805003    0.44048865763481    0.79453243191033
H          -1.72674455248727    1.05112528443029    1.16018260578825
H          -0.92358124411411    0.56672579870010   -0.23542007217013
H          -0.05237375925319    0.71896839547545    1.21745678344795
H          -1.17146119807010   -0.58276613469701    0.96506259377378
