    26
        -50.47163184  Gyration_radius:  2.41159809781 Dipole_moment: 2.523
 S          -0.19943619606633    1.94345022334013    0.04881373444382
O           0.84391760406532    1.01862944832901    0.46289749888677
O          -1.36410294713686    1.90294222015908    0.90487475467832
O          -0.50936546159840    1.80862898185381   -1.36497221422978
O           0.44066725377788    3.38643301236789    0.23385518403091
H          -0.31154730742052    3.96569944384415    0.16624500353245
H           0.62463079891557    0.84348017903451   -2.00949651781953
O           1.37087670787671    0.24377025705862   -2.25419317343111
H           2.14535555993322    0.64602164518126   -1.85454372866391
O           2.21549949893667   -1.13884700076998    1.35436417989478
H           1.98607748847058   -0.23248220757338    1.08706689298569
H           1.63673203422870   -1.32196734770513    2.10205557541132
O          -1.43100806912988   -1.95335448415519    0.20247597768710
H          -1.18694951490276   -1.56247827563717    1.06649240560967
H          -1.99054176045751   -1.26587533523025   -0.22797577233356
O          -0.51813560459094   -0.42689539644452    2.24868479566931
H          -1.25101706930871    0.09660472226668    2.58150968235849
H          -0.05281129309037    0.17698433264534    1.63523575521207
O          -2.61773798947900    0.22967628659453   -0.74711153519101
H          -2.42501318240986    0.82853485612338   -0.00371248305595
H          -2.10566013001739    0.61692384101421   -1.46780895951973
N           0.94805435340529   -1.98333597402429   -0.85023838467547
H          -0.07298127713788   -2.02191598776671   -0.50237223548533
H           1.54650612158129   -1.81684602764077   -0.00212154585629
H           1.20503025909370   -2.83936412970056   -1.32849259012883
H           1.07296013246276   -1.14441730316005   -1.48153227000983
