    26
        -50.47523166  Gyration_radius:  2.42137143368 Dipole_moment: 2.938
 S          -1.39811878183853   -0.68128769479950   -1.02365555858954
O          -0.20127225754336   -0.17775223627418   -1.68467754908413
O          -1.71057859119863    0.06483047953897    0.18067795382424
O          -1.33402772308125   -2.11325135928917   -0.81329341598163
O          -2.60069837732821   -0.42458841230128   -2.01374524971854
H          -2.39680330624045   -1.05090534175316   -2.69853582853082
H          -0.26521279439030   -2.49266327495123    0.31559243406204
O           0.45088770023350   -2.65960928240376    0.98241885261473
H           0.36661721305888   -3.58060790823637    1.23434604818158
O           0.59306355142830    2.29436784413440   -1.01300320238543
H           0.30794348414068    1.46397056408507   -1.44476033600671
H          -0.23024063060692    2.67417217627360   -0.64990886384031
O           0.03146377020437   -0.21566265533332    2.17333953783981
H           0.24751531129234   -1.15195406303000    2.02806610641668
H          -0.71239452156070   -0.05124532218637    1.55818126285513
O          -1.82526791142389    2.71379018481574    0.10734502861184
H          -1.90999898104464    1.73801895047276    0.09068015420123
H          -2.08824488554085    2.98833057192419    0.98713932197630
O           2.07200172036481   -1.21429524313008   -0.71559426309948
H           1.70477442167129   -1.89091202115986   -0.12289572076601
H           1.30908864639229   -0.90852500351824   -1.24723029731095
N           1.94557589368709    0.95494047933430    0.77638896006353
H           1.45638892751308    1.63192249735367    0.10399256232702
H           2.21138714696320    0.11177291746310    0.18869870450141
H           2.74717478314423    1.37784302054413    1.22849617043861
H           1.22897618170296    0.59930011242685    1.47193719739879
