    26
        -50.46893117  Gyration_radius:  2.43907634339 Dipole_moment: 1.758
 S          -1.28321413092478   -0.47141911759054    1.26119539161695
O          -0.73806739788866    0.86711789271217    1.04647469197624
O          -0.26662558081422   -1.38168569171052    1.74089607565211
O          -2.00358534257821   -0.94896999904309    0.09783284571793
O          -2.37429091683292   -0.34200309900046    2.40076036514799
H          -3.17695790535468   -0.35659295222698    1.89039551947776
H          -1.16440835234670   -1.11243869504619   -1.28467585338610
O          -0.59478677855147   -1.27110166220333   -2.07766734076397
H          -1.15088042705640   -1.72518186010904   -2.71258313708530
O          -1.46010457086266    2.31667759136335   -1.05641739248292
H          -1.29227190315436    1.75134144612136   -0.27294896770559
H          -1.46798479024926    3.22002515895154   -0.73646921718155
O           0.58012759999073    1.20993328324828   -2.44328223186895
H           0.21735143804999    0.31334320963905   -2.54857796548087
H          -0.17704386651843    1.73539905719795   -2.11367672630258
O           1.93383497599056    0.01183506551205    2.53176858925959
H           2.17961662997042   -0.24185172172337    3.42201279845495
H           1.13163495034259   -0.49966816552063    2.32436143212534
O           1.37825600904182   -2.01579919299842   -0.29891041891154
H           0.81248351330812   -2.03863308990008    0.49452986867121
H           0.77114003109776   -1.99181456716434   -1.05665054553566
N           1.65820627447188    0.61435498381418   -0.12428759853901
H           1.75888409070399   -0.43944809032752   -0.17263340708641
H           0.82253847068742    0.79724537710781    0.47612348040723
H           2.47699273131607    1.02645125709431    0.31071781232185
H           1.42915525804255    0.97288358182684   -1.09828806842416
