    26
        -50.46869412  Gyration_radius:  2.51910984726 Dipole_moment: 5.468
 S           0.30306782240462   -0.60699350305433   -0.82818037254765
O           0.11956018377966    0.83948926067513   -0.98846551120010
O          -0.96600012176964   -1.26668027775669   -0.57033675294119
O           0.92498861780542   -1.17134640767354   -2.12831934995047
O           1.28684783592210   -0.88799448634108    0.21578714002092
O          -1.48592566551322    0.90917216331246    1.05789456073542
H          -0.93261893776565    1.04849337594007    0.25228256611156
H          -1.78842247621334   -0.00130340177497    0.95362067612271
O           2.15434621838788    1.51875446397671    0.72372721742627
H           2.06307314038021    0.56189621487616    0.50587453277007
H           1.64424558179953    1.93467913033952    0.01742797204129
O          -2.36688604775984    0.26265256406911   -2.19158225686471
H          -1.86721252242816    1.06808521664981   -2.02391418535187
H          -2.02160863801968   -0.37943417851104   -1.53357922097416
O           0.98386031532890   -1.50741749414833    2.73573327357573
H           1.01647533081530   -1.42229166902383    1.75206462790400
H           1.77265642678119   -1.99553398205421    2.97759996743964
O          -0.88854065051401   -0.97041997585829   -3.98439489590193
H          -1.26783117481263   -1.84244982981772   -4.11217087205543
H          -1.55563139090502   -0.45090118810511   -3.46793997394815
H           0.28094638580716   -1.06584743581104   -2.88217091580507
N           0.51987959631886    1.10671950717910    2.74262664435491
H           0.73655450721455    0.10548231572382    2.97546892071474
H          -0.39489777907599    1.08946298622682    2.19781932605967
H           0.47243548012052    1.69889061868129    3.56355078936113
H           1.25663796189145    1.42483600214399    2.03957609274461
