    26
        -50.46293858  Gyration_radius:  2.57509702418 Dipole_moment: 3.756
 S           1.14590668933521   -1.74858117414310   -0.92194949963620
O           1.36543728610530   -2.22764738361858    0.41615840159732
O           1.36736421845975   -0.30100959071451   -1.02772454936334
O          -0.15124321420125   -2.10882688236018   -1.47772038725736
O           2.22140138050037   -2.42784042830172   -1.86443526341804
H           1.87474531048205   -2.22005016824799   -2.72599014705415
H          -1.29072543060692   -1.80632749613361   -0.45100542907450
O          -2.09939914636215    1.06724911958993   -0.15121233913209
H          -2.92746523878875    1.41796887846531    0.17950690008688
O          -2.03147922830766   -1.58403001102313    0.18376611984668
H          -2.16780094937474    0.08601491153898   -0.11713401058465
H          -2.73631586171703   -2.19831048705760   -0.02916923445841
O           1.32517328024267    3.23158891717474    0.65553126301508
H           2.19132747246815    3.59537397894024    0.47088589963093
H           0.93906600079384    2.99225908904190   -0.21661216667114
O           0.24294698610739    2.14039163706845   -1.58398760564326
H           0.72254212523923    1.29497058167420   -1.59350287123694
H          -0.67328505390420    1.91251419541029   -1.38877385661204
O          -0.25574798784902   -1.46544730387532    2.38511042032101
H           0.43557961196482   -1.91408366567402    1.85801480323853
H          -1.06702563453828   -1.61821749302080    1.87865657807079
N           0.32108258466510    0.78711086006223    1.13731298022289
H           0.82678839222683    1.64393855829305    1.40803336996867
H           0.84030616506324    0.33880261401480    0.33494630282544
H           0.18705977251361    0.05065193050454    1.87645566263228
H          -0.60623954052104    1.06153678243370    0.76483867867677
