    26
        -50.46518781  Gyration_radius:  2.51668284008 Dipole_moment: 6.259
 S           1.50321684785434   -0.46888055224613   -0.75605232915150
O           0.54109766842949   -1.28625375458464   -1.47820216855896
O           1.38331836167568   -0.62629186733518    0.68471630225518
O           1.38203869720239    0.94661174109384   -1.12293639366040
O           2.91866674629509   -0.95447998877603   -1.18703471035885
H           3.49756487682695   -0.34371575908570   -0.68864299786531
H          -0.03775066160314    1.65167261488949   -1.02005779573455
O          -0.95778170018867    2.02003581971001   -0.91816176968205
H          -0.95906242048427    2.86107758997676   -1.37777603273030
O           3.61047341607122    1.06103334801938    0.36709544663625
H           2.86471994496130    1.41661936149681   -0.14322977867576
H           3.22947614868060    0.73292391234015    1.18788570380127
O          -0.10198420705051    1.40960808224036    1.77621911651160
H           0.54817414518957    0.80114790457131    1.38695283942870
H          -0.55313685795283    1.82096263129386    1.03073123533443
O          -2.85380410737789   -1.71057906024871    0.72074156045182
H          -2.90626660081204   -2.66607145002029    0.66501213284420
H          -2.11269222493164   -1.52161460408597    1.36694862106367
O          -0.78968603859642   -1.23092442907695    2.22916684914025
H          -0.80913694389841   -0.29261987700879    2.47786816513106
H           0.02330591468671   -1.30224387686245    1.69899799369166
N          -1.90964571913717   -0.46008268105512   -1.39433632295199
H          -2.43223824294970   -0.61667572944655   -2.24939101287208
H          -2.37145373214579   -0.94376761325615   -0.56481881363549
H          -0.91621836854856   -0.85403215862292   -1.48209665499900
H          -1.79119494217118    0.55654038611193   -1.20959918543238
