    26
        -50.47133226  Gyration_radius:  2.5175114589 Dipole_moment: 3.522
 S           0.27892358242706    0.79660755715754    0.35101443557643
O          -1.12839260426683    1.12007022554467    0.18211942145409
O           1.06586419953831    2.11956487088554    0.19289791963918
O           0.55698000745840    0.25099393774558    1.67305043715627
O           0.74103413653173   -0.12043437457149   -0.69851302438446
O          -1.95998668815573    1.60692050259021   -2.27579532217234
H          -1.60075738053907    1.59012846839384   -1.35936169123005
H          -2.79924587357019    2.06708381082560   -2.22146452662828
O          -2.65805795067272   -1.10591410069105    0.23582555505364
H          -2.07731095260469   -1.65341912806087    0.80395814936383
H          -2.33900859506041   -0.19632524664548    0.38703879112920
O           3.13933410051779    0.00992999363320    2.21062595526038
H           3.33029680710042    0.62886793640126    2.91744355204909
H           2.16492963280472    0.02538601641529    2.09162431298436
O          -0.63045803394137   -2.11985747071374    1.65100810954476
H          -0.13842607504351   -1.27118197040654    1.65958389805414
H          -0.61621879915410   -2.44189494105775    2.55410267917385
O           3.23383945505260    0.86033194263941   -0.33183754876078
H           2.63075896950241    0.21101298148680   -0.72259908992648
H           1.99514684249553    1.81338073051504   -0.02607405364540
H           3.45173978551322    0.51150552121324    0.55893169588203
N          -1.33433975771914   -0.97213984765140   -2.00394675369834
H          -0.40502330559443   -0.72191480391930   -1.54523693007506
H          -1.98261660658364   -1.20746959511944   -1.18306572480243
H          -1.67723111053376   -0.08077410715736   -2.42048687257402
H          -1.24177378548970   -1.72045890943926   -2.68084337442736
