    26
        -50.46537058  Gyration_radius:  2.50482853786 Dipole_moment: 5.435
 S          -1.88058006741492   -0.87246501803373   -0.44479088023397
O          -1.27087156694942    0.27597514860567   -1.07563350819915
O          -2.50742732866549   -0.55387526910143    0.83181549577002
O          -0.97073869065263   -2.00515760269312   -0.31406307147213
O          -3.04486272953676   -1.34371044358171   -1.40655201640317
H          -3.51787122251823   -1.99129539154427   -0.89278102614767
H           0.16087494789827   -1.66746115032736    0.76958615918744
O           0.84097923409411   -1.40009067637774    1.44265762329453
H           1.10809726579813   -2.20727792246267    1.88566887895658
O           2.26970950179943    2.25289620160485   -0.47273686593629
H           2.55286047698194    2.57448975444579   -1.32958537142861
H           2.43439792079887    1.27513525107219   -0.48320358024322
O           0.62094904643427   -1.12015921482137   -2.35422275334169
H           0.26710161298563   -1.88355746176469   -1.88163174490763
H          -0.01998260830710   -0.42046248752611   -2.14584483586769
O           2.51821584139350   -0.37292734291604   -0.57761332798463
H           2.07683522387869   -0.73563750267909    0.20341042342268
H           1.96271485264489   -0.64670764223608   -1.33882441046204
O          -0.29334844499453    2.48050880612836    0.12937361934116
H          -0.70828549448249    1.86146541885039   -0.49878513565667
H           0.67018755719056    2.49292477543526   -0.09898221148196
N          -0.64528142847746    0.80904594172223    2.04756771971567
H          -0.43882338029912    1.61020174099156    1.32630192724021
H           0.11634890048535    0.11099081736980    2.02555656945393
H          -0.79961281330461    1.16686339448513    2.98368004700884
H          -1.50158661675949    0.31028786533763    1.66963226641592
