    26
        -50.46475307  Gyration_radius:  2.61621447147 Dipole_moment: 1.391
 S          -2.08635571165812   -0.50982554851359   -0.56135385331647
O          -1.67278954597027    0.64660360788088   -1.33497341724495
O          -1.47465479440284   -0.53403116029466    0.76081696603480
O          -1.92179486447206   -1.77160159197549   -1.25370959701098
O          -3.64592844211337   -0.32324461470359   -0.32885858532313
H          -3.89304195863962   -1.13835489397817    0.09595797602369
H          -0.35713377262016   -2.07232707685746   -1.13195086603621
O           0.62575552407891   -2.20562768460067   -1.14911420203316
H           0.76642388565360   -3.01655707939104   -1.64176581641200
O          -1.44565268090555    2.94206067414953    0.01236961661596
H          -1.74656598368281    3.67216192045735   -0.52955009853153
H          -1.64316576216664    2.12689189769182   -0.49538737335900
O           0.99308812807698    0.45861450977824   -1.68678860232902
H           1.04235925050295   -0.51096101001872   -1.64555640347852
H           0.04586577745834    0.63919703252589   -1.82941977557578
O           2.26329851843675    0.31568019161405    2.63245938347521
H           1.90351950713357   -0.14487331295930    3.39203918028887
H           2.49318798473704   -0.37745247066912    1.97683221010234
O           2.60334760741160   -1.41756478533382    0.59688705956284
H           1.80960544555582   -1.76737531630323    0.15562202566762
H           3.11796652946295   -0.99128813885646   -0.09189433428867
N           0.46633900624139    1.21684348759942    0.83143962693022
H           0.89926726138504    1.02721889353597   -0.10463709552528
H          -0.31136530015982    0.50468129775439    0.92246092946396
H           1.15323180387529    1.09170316623261    1.60260106047925
H           0.01519261675943    2.13942800522233    0.80547398583207
