    26
        -50.46936852  Gyration_radius:  2.54267498691 Dipole_moment: 2.081
 S          -0.63916760856008   -1.49022254100405   -0.43269109953495
O          -1.35056637964670   -1.45965036820548    0.83012865328699
O           0.76256605142074   -1.88248835733615   -0.26451082966042
O          -0.72805678349883   -0.21405067715427   -1.13223481936080
O          -1.32625154586298   -2.57126177213529   -1.32574248634353
H          -0.73131851301318   -2.61538834566178   -2.09694439303174
H           0.63947350352748    0.69653046982336   -1.37048234778884
O           1.42310776824000    1.29263410970128   -1.38536164989371
H           1.93410922967487    1.03215640501806   -2.15302256855151
O          -1.21483867280895    2.36914725493027   -0.55496580306735
H          -0.33938160922004    2.64065909248310   -0.84970241928503
H          -1.26013057468415    1.41916509105351   -0.77448512961359
O          -1.51458636932251    2.51704150934319    2.04982022974680
H          -1.40024050289459    2.56575330758212    1.06411586898200
H          -2.46113184347820    2.48481587190346    2.19786885924755
O           2.01457553541280    0.10249887250630    0.98132999722364
H           1.98334550142073    0.73520210800371    0.23809390857585
H           1.71887948012588   -0.74127902282126    0.57952581752250
O           0.90316324520459   -2.50177781647850   -2.78808851735322
H           1.09374688680586   -2.24127035899492   -1.86139126482882
H           1.34623687628095   -3.34098744538113   -2.93132182332860
N          -0.17164890196408    0.24726075504786    2.42294257461253
H           0.78105348701547    0.31014611637619    1.94346898158390
H          -0.71577703545685   -0.46994360136197    1.86136696434854
H          -0.06969922600327   -0.05613414964703    3.38535156537390
H          -0.67746198873730    1.17144353240278    2.36693177115517
