    26
        -50.47250292  Gyration_radius:  2.48726593626 Dipole_moment: 2.877
 S          -2.13275407999666   -0.46080206447283   -0.61904829295946
O          -2.26274047764745   -0.91526414651448    0.75994983191622
O          -0.86111870568321   -0.84757114811508   -1.19964563069173
O          -2.42482678759771    0.95328207622772   -0.75604702718785
O          -3.24607273015332   -1.22243312789874   -1.44987496629524
H          -4.03530555264355   -0.80212177683873   -1.12604235488828
H          -1.27241777297130    1.87603610771083   -0.15602024175812
O          -0.51773352026006    2.43549124740714    0.16587990722925
H          -0.89929600287776    3.28205194986518    0.40271385926108
O           2.71320764930554    0.13690919698769   -0.46245897375410
H           3.56965770818291    0.32158312579290   -0.84834643523231
H           2.03234350651087    0.52800636492211   -1.08358245306958
O           0.79054476614526    1.12661177364668   -1.91498238341999
H           0.42838751364447    1.83498550690640   -1.36281708491068
H           0.14394635522062    0.39726840946390   -1.83025453124485
O           1.26772415030524    1.04593292126958    1.69877166941697
H           1.93390302869420    0.79844925934859    1.03237916845315
H           0.63112942321678    1.61559997599035    1.22673582309715
O           1.28647207524469   -2.21615491027902   -0.30420278469836
H           0.52239903505042   -1.91234325572237   -0.82838452195062
H           1.95393888015977   -1.51338406438925   -0.40771445784838
N           0.07596104653839   -1.30582554219641    1.84335421684233
H           0.52961750776826   -0.34941490668195    1.93357365385442
H           0.06836688514872   -1.80440479992052    2.72549953059280
H          -0.90921866057046   -1.17283765924695    1.47211068378539
H           0.61388474928764   -1.82965049325315    1.08845380545022
