    26
        -50.46668739  Gyration_radius:  2.50883553879 Dipole_moment: 2.044
 S           0.58939903319682   -0.41333688670197    2.01645774772138
O           0.41798357419035    0.97726476230223    1.66870631803467
O           1.93623601975995   -0.92013821144395    1.88866151890870
O          -0.39052226606785   -1.25940854590004    1.32332057583997
O           0.23140072769142   -0.53171362561704    3.56470785314046
H           0.80746133825766   -1.23063623017462    3.85791116810229
H          -0.29000816648319   -1.96165798271789   -0.15993270828981
O          -0.17132651524444   -2.35257271485627   -1.05840730408722
H          -0.32265542025337   -3.29328229666248   -0.95862592901733
O          -1.30912047600000   -0.71451781141978   -2.97559317409767
H          -2.25249837551287   -0.83338691340208   -2.85261806026594
H          -0.87647035806452   -1.36486535221105   -2.39085045875709
O           0.79306538876746    3.16216988865353    0.09010346560059
H           0.66466099694527    2.45752610069208    0.75204080033748
H           1.70746046424410    3.43405993448737    0.17816628946291
O          -2.09482288119299    0.59574401061022    0.61653605522814
H          -1.58572779568013   -0.18294336531082    0.93568505222528
H          -1.91730328446741    1.27959631899624    1.26830974741857
O           1.83781848819647   -0.43957388131915   -0.69827561024448
H           2.00741786492532   -0.57392849543311    0.25667390216646
H           1.49736486544289   -1.28262085308994   -1.02773395492270
N          -0.26181957812297    1.10763502474386   -1.28481262260629
H          -0.60549116491672    0.75814489097514   -2.19374120435256
H          -1.01337046339852    0.94691857524843   -0.56207027415418
H           0.58627896417668    0.53889838366654   -1.00974648243397
H           0.01458901961120    2.09662527590676   -1.24487270096508
