    26
        -50.47098802  Gyration_radius:  2.5306050068 Dipole_moment: 0.502
 S          -0.38691503977504   -1.22759839269162   -1.36522790119020
O          -0.80073406143588   -2.14594256027637   -0.32516812315291
O           0.87548229548480   -0.56425153839941   -1.07608351954817
O          -1.43643832889836   -0.27888946778795   -1.71102289195370
O          -0.10325633156396   -2.09057555491100   -2.66513115533195
H          -0.90056475878420   -2.58809702644034   -2.82454490224076
H          -0.61658988793021    1.18685685380461   -2.13052883868827
O           0.08128203371564    1.86430128425360   -2.21932313660047
H           0.89895828795466    1.35741280576633   -2.19920063741276
O           1.47387526089321   -0.47312380272699    2.95883960680082
H           1.50250342241390   -1.23942062202582    2.33663974716660
H           2.34982923623185   -0.40087727218290    3.33919844552693
O          -2.35380290939881   -0.15850259794263    0.77843184294195
H          -2.27103672439379   -0.08690285917749   -0.19214994830329
H          -2.21466003978784   -1.09698051628165    0.94905298454349
O           0.04757350347890    3.32814552253078    0.01068157164529
H          -0.74584466154351    3.86539938904180    0.01339533640708
H           0.09323030013706    2.91145072463659   -0.88384080643259
O           1.53265025957611   -2.25754877590311    0.97343959141609
H           1.87793958123856   -1.73729925285585    0.23723346460896
H           0.62107590688898   -2.45136997411042    0.68955414251017
N           0.10192328028958    0.87180672419696    1.08011912238087
H           0.13558308124308    1.89854519957206    0.88622733102371
H           0.50892274544744    0.37386179234298    0.25960895912376
H           0.62749655265882    0.58130348685893    1.93036272199882
H          -0.89848301412207    0.55829643069616    1.14943701278651
