    26
        -50.46485783  Gyration_radius:  2.56514233294 Dipole_moment: 4.112
 S           0.34687755606681    0.67587037132895    0.52601107263222
O           1.01820129685344    0.13599494522604    1.81525384960993
O           1.29936139449127    0.53400594796425   -0.57053239902504
O          -0.85537558725931   -0.12366164832564    0.27138371832728
O           0.00593674901132    2.07355483368762    0.75985498798373
O           1.82386769450546   -3.31829321713684    0.26015870593938
H           2.38490678654232   -4.02626039367262    0.58012215025585
H           2.39884279093402   -2.52028491598050    0.19017263433468
O          -3.25236725293725    0.94681688472683    0.09296551596036
H          -2.41060726863701    0.43875992879559    0.18051142789529
H          -3.56004879820939    1.09709285258201    0.98823859293277
O           3.22518254113691   -1.04348619851194    0.34281749003826
H           3.23078855839398   -0.72892650634091    1.25067850258450
H           2.61165677331985   -0.44005256023376   -0.12530283303866
O          -0.40359300620755    0.65006821734324   -2.54721716134622
H           0.35875147518346    0.59468583480065   -1.92255645800155
H          -0.90403857817116   -0.15522991330194   -2.39112585992423
H          -1.18227342739242    1.90271228946319   -1.90316558692524
O          -0.04053185079273   -2.17001611017494    1.78328940580894
H           0.65379478666379   -0.80343121394564    1.94210196339227
H          -0.64768039128015   -1.75959915190243    1.14791240438564
H           0.58318640289060   -2.71274437774264    1.24649133141009
N          -1.59186035669278    2.57093875788614   -1.18721218756354
H          -0.89616747218153    2.53759057340816   -0.36743424668405
H          -2.46645721240626    2.13789262676004   -0.81011480228860
H          -1.73035363379999    3.50600216330822   -1.55330216868837
