    26
        -50.45756273  Gyration_radius:  2.71393434551 Dipole_moment: 4.211
 S          -0.97055189147855   -2.65101149951874   -0.04023191452282
O          -2.20476725134190   -2.33626057368150   -0.69872074970688
O          -0.98333658415286   -2.39814598498602    1.39909580529031
O           0.17427171903518   -1.96810333480082   -0.66211421019851
O          -0.69968292160768   -4.20423252276667   -0.20559265836598
H           0.02660323024216   -4.37028669570205    0.38939897764127
H          -0.61173008013466   -0.69754680577831   -1.19292431116149
O          -1.19223666444368    0.09233863796441   -1.37039615091497
H          -2.00630921038056   -0.31371971694779   -1.68612183962014
O           0.97552787242319    1.62244134545274   -1.92992879715596
H           0.13414976046008    1.14278303979554   -1.80394466453894
H           1.11719445419295    1.68570674575853   -2.87539800173994
O           0.98196854180736    3.37133616937577    0.20632339466921
H           1.79989798427761    3.87050997884530    0.18731729718351
H           0.97067774680790    2.82571726244470   -0.59967670665280
O           0.95747345487619    1.29886505404647    1.96114160854229
H           0.94675030506772    2.15073460790317    1.48056495813771
H           1.51436540488554    0.70425466602865    1.40337881762495
O           2.07048563385200   -0.16617461377191    0.04303216329199
H           1.93482673043246    0.43281966121449   -0.70374214845013
H           1.49286557277538   -0.92958478379027   -0.13718192711943
N          -1.30794290653839    0.18204362133252    1.37657774299105
H          -2.12053043869501    0.51828597340586    1.88157137574207
H          -1.40654906765114    0.33803175670786    0.35415754151905
H          -0.39648186005676    0.67013671481457    1.71460362512652
H          -1.19693953457232   -0.87093868329382    1.50881077233667
