    26
        -50.46761500  Gyration_radius:  2.48851271474 Dipole_moment: 2.463
 S           0.37509945651271   -1.81605180879484    0.46293486440694
O          -0.95231686708247   -2.25203290945037    0.11777377743868
O           0.36297023666280   -0.72485254385456    1.43760215828181
O           1.18973137703459   -1.46447812023150   -0.69246695931083
O           1.10694078688553   -3.03276589647015    1.15832215234459
H           2.02549758619268   -2.78054128766655    1.14135398145434
H          -0.03625131140280   -1.07546613462654   -1.79575388251896
O          -0.82307241128127   -0.66943059855596   -2.21521163333299
H          -1.52414074011653   -1.31583181161691   -2.09815623356412
O           1.76724403081092    0.96901846214411   -1.83890992156477
H           1.74936937808369    0.12338828383407   -1.36048197266997
H           1.25452686180548    0.82209598924042   -2.63701207171394
O          -3.08159050052182   -0.66879600386930    0.62542930404194
H          -3.77704490795155   -1.17435088358837    1.04708145948802
H          -2.34943501303079   -1.29816427195362    0.47558478619330
O           1.74877724320711    1.50812005857232    2.03538673317222
H           1.33672177623404    0.64697716879725    1.83400238550300
H           1.54252031525998    1.69471256211566    2.95237048273406
O           0.76992058142209    2.82750069069079   -0.13862876434782
H           1.27017870778062    2.36511943572073   -0.84044162433744
H           1.22441862082405    2.56648215887543    0.68541796509002
N          -1.05637462184552    0.97301412756343   -0.07287293744706
H          -2.02378817239799    1.08287507127095    0.23107876451159
H          -0.47163891468047    1.87249255028666   -0.11586694333959
H          -0.57831056329291    0.33357526740447    0.60200287884197
H          -1.04995294510492    0.48739042416422   -1.00053874942974
