    26
        -50.46859024  Gyration_radius:  2.49874791998 Dipole_moment: 4.135
 S           1.10377650472422   -0.58125519725928    1.12203366682856
O           1.25023538617314   -1.54366464486630    0.04911951078965
O          -0.30660684329440   -0.29550417453595    1.39646492989786
O           1.82558513084046    0.66219212504235    0.87073521718087
O           1.70773734126195   -1.23646596283302    2.40577149886328
H           1.56443815647724   -0.54883433847211    3.08517442154130
H           1.14046480064547    1.53328018514230   -0.28677219924551
O           0.75464125230517    2.04164202291967   -1.04762903975782
H           1.32319713210987    2.80623570478435   -1.15670138515175
O          -2.00074915327483    2.11446629106374   -1.35104351490930
H          -1.04678168743229    2.16621706782558   -1.15613563170262
H          -2.13674116177193    2.59498147531854   -2.16878915771550
O           0.57146641773414   -0.42756683023881   -2.29185843588498
H           0.78215842433025    0.50135216444366   -2.10662185521523
H           1.03439175146801   -0.94148902659200   -1.60315459521279
O           0.92399153456320    1.08805947030280    3.39729359699431
H           0.06566643427247    0.84653546495422    3.02400550138578
H           1.43688466983110    1.40628283823066    2.64104340546809
O          -0.98009560957128   -3.06479189269358   -0.32285749314893
H          -0.77921695001028   -3.98470348052497   -0.14763155942829
H          -0.15001181940793   -2.57836515504172   -0.16197364312839
N          -1.65425417817832   -0.51434753724440   -0.84846308659962
H          -1.19328889144817   -0.43318711444936    0.10261032978355
H          -2.19827385649040    0.34284445928334   -1.02903688673556
H          -0.86100027849203   -0.56597067872571   -1.55221631396573
H          -2.17761450736887   -1.38794325583203   -0.86336727093819
