    26
        -50.46740994  Gyration_radius:  2.46265457655 Dipole_moment: 4.980
 S          -0.55658663360151   -1.56487838745297    0.78060030723791
O           0.60128763497455   -1.14644939670667   -0.00905582010311
O          -1.34416408082815   -0.42483552626950    1.20717947853002
O          -0.26732282613023   -2.51790782958998    1.81492440223283
O          -1.46191871845248   -2.34507683211181   -0.29581605975510
H          -1.97720277482737   -2.94432311627241    0.23533085881185
H           0.90919066976040   -1.47123746658215    2.53190790391319
O           1.57304150623300   -0.76886312614179    2.64960783409864
H           2.24014370289545   -0.93671861435325    1.98064166619640
O          -1.89866446279523    1.09580725241876   -0.92505365778273
H          -1.61479886047527    0.51193161678131   -1.64654866655932
H          -1.95209656521722    0.53039878272576   -0.13022987051728
O           1.42005952593858    1.55883080384933   -2.63083210198708
H           0.83059283385447    0.79127038703161   -2.67914609777170
H           1.65667406221271    1.77582354818919   -3.53292718938377
O          -0.34991092863857   -0.66638270966247   -2.42454382041322
H           0.03737881213731   -0.94452426750818   -1.56556814209685
H          -0.75348293410467   -1.45502079299968   -2.79041162946532
O           0.12287463482887    1.52843067047915    2.53477373453806
H          -0.66631887422428    1.00713733311808    2.31925759955234
H           0.76683866129853    0.85532931859819    2.82154087109637
N           0.56499637023577    1.54076916482246   -0.05052461729555
H           1.23415890691595    2.02112000262660   -0.65131824204039
H           0.75450503649275    0.51384227475249   -0.06063480465054
H           0.53910081525376    1.81994092691078    0.96709979680607
H          -0.40837551374248    1.63558600330934   -0.45025372320142
