    26
        -50.46819077  Gyration_radius:  2.43086663278 Dipole_moment: 3.471
 S          -0.79045423439519   -1.76825030124850    0.33753551233317
O          -1.72126810409469   -0.67113692037974    0.17119368356911
O           0.37755500926315   -1.36786890891205    1.11513921955658
O          -0.40493859843949   -2.40372055305117   -0.90746799726550
O          -1.54499586449699   -2.86839276398077    1.18331389976069
H          -1.00398255761888   -3.63281331078075    1.01934477534848
H           0.56767206649052   -1.54142414225375   -1.85495188709137
O           1.12707170965099   -0.93323033302736   -2.40336993781652
H           1.35963534557334   -1.42652633179097   -3.19134382832484
O          -1.39449325124837    1.48107746039930    1.66755463176651
H          -2.26458683854678    1.75610591030946    1.96011158368152
H          -1.52643808026328    0.64232234905655    1.16991155039703
O          -1.13884986958755    0.75054183222752   -2.06786261444225
H          -0.40547492118055    0.23815398888680   -2.43523273255848
H          -1.51364480040755    0.20125962608533   -1.35708211893753
O           1.24283504283727    0.85252014086972    2.61736861340089
H           0.40317187122166    1.31620176668934    2.51472878074496
H           1.02702088626302   -0.07445161315319    2.46457221712553
O           0.04059361326659    2.47054768115550   -0.42337242697144
H          -0.47987628997001    2.03988919589724   -1.14185750959634
H          -0.49436418802485    2.35415979611920    0.38388261123985
N           1.73488630314283    0.51798469515202   -0.17086607639291
H           2.60613871824095    0.75167717002717    0.29558288690474
H           1.86982436619701    0.11731445797454   -1.10883554946372
H           1.22404460480554   -0.20273182760795    0.40433547616072
H           1.10291806132583    1.40079092533788   -0.24233274313177
