    26
        -50.47073143  Gyration_radius:  2.48409195149 Dipole_moment: 1.239
 S          -1.73643139995489   -0.36772542091775   -0.40061579902713
O          -1.08874559815005   -0.38522948377305    0.89908608499891
O          -0.79156148192766   -0.65551913540834   -1.47146433754903
O          -2.51630979990154    0.82343452633667   -0.64902761754166
O          -2.76451749022455   -1.57927422379204   -0.36438980438104
H          -3.39696434429932   -1.37118693845773   -1.04489424928034
H          -1.48715575554331    2.08102321324056   -0.52162883693232
O          -0.80398331819420    2.79084419883313   -0.45332251632756
H          -1.24541765144907    3.60775928603167   -0.69318239600510
O           0.05223921766058   -2.77984424536147   -0.12099102293421
H          -0.19379238530636   -2.08733684891019   -0.76365690595237
H          -0.57192020852062   -2.67195784482224    0.60114199046892
O           0.12587331874346    2.00774455218502    2.07710840021018
H          -0.12419188652851    2.49399570193000    1.27658499228831
H          -0.51827970307888    1.29365612741985    2.13793505639183
O           2.60140658872402   -2.32235244650690    0.57600861606244
H           1.69283733272183   -2.63474812266912    0.35864864892485
H           3.16180600131959   -2.61601450722112   -0.14364103232477
O           1.11435813858848    1.22128662862307   -1.64623049422374
H           0.57813687733268    1.98316792280290   -1.36892598337274
H           0.46270859833326    0.52047313959346   -1.84031128635954
N           1.52671427111010    0.12784696263512    0.72304870050881
H           2.15196021916707   -0.70426492121258    0.78182314387544
H           1.57992672324633    0.59173722798847   -0.22843284358538
H           0.53209832262606   -0.19426065210071    0.81818999163268
H           1.65920539347785    0.82674531355576    1.46113949038595
