    26
        -50.45846280  Gyration_radius:  2.48918831484 Dipole_moment: 3.694
 S          -0.98114296626760   -1.83482005995900   -0.47467680481369
O          -1.47838517925348   -0.71432542295325    0.30977648296547
O           0.45349291232656   -1.98983283292658   -0.33084097131209
O          -1.43107823973307   -1.78573629029268   -1.85071394206047
O          -1.62512187258166   -3.14700220744480    0.15152157938321
H          -2.47793320088354   -3.17856312092972   -0.27009096898727
H          -0.46757228207072   -0.55185802678294   -2.14055217569955
O           0.22448724212611    0.13738943854581   -2.30633040265181
H           0.82128658609827   -0.25978632049923   -2.94442772895585
O          -0.03453038680653    2.95805511717479   -1.63731330506210
H          -0.73288561542312    3.01258875681859   -0.97887102383690
H          -0.19736798692793    2.14937199692469   -2.13620529102522
O          -1.08295555363229    1.83391291718478    0.95833499121398
H          -1.47471871783166    1.02883885520622    0.56605192783634
H          -0.98549419692646    1.58674880195555    1.89330464875082
O           1.97330819501208   -0.97985031474657    1.47911824988833
H           1.36123380945495   -1.44771314715432    0.84595986918568
H           2.74784378877446   -1.53849207964488    1.55603377919314
O          -0.42233303890986   -0.10910790163294    2.76006958299654
H           0.48381684150085   -0.42718302777403    2.67953190152372
H          -0.89537891083336   -0.51030220577137    2.01067006425195
N           1.27752034824783    1.15798379692019   -0.02005700075323
H           0.95958328679931    0.67430811633544   -0.89427825781071
H           0.37938442462784    1.53005213934324    0.42780393290880
H           1.72698015609107    0.46561891216664    0.61307474302064
H           1.87796052702216    1.93970410993509   -0.26689388014905
