    26
        -50.46955699  Gyration_radius:  2.46840070545 Dipole_moment: 4.586
 S          -0.05592310579779    1.19616792030155    1.47590235580010
O          -0.30676487343380    0.26606144330609    2.55828911348481
O          -0.89577959720899    0.90279546296035    0.31540953256148
O           1.35608301236299    1.20002136404454    1.07980453507849
O          -0.41828398129910    2.62667040776019    1.97131348190843
H          -0.17292045715898    3.18978543413101    1.21166866847044
H           1.83373926664274   -0.20951930283662    0.51940730945113
O           2.03563498515681   -1.10650511398829    0.13902287107099
H           2.95627839483757   -1.27807372116984    0.34368978909761
O           0.54189288104743    0.43670158752401   -1.85104633100928
H           1.27330348245161   -0.07769306995704   -1.49081359059392
H          -0.00865438503534    0.67360894171077   -1.07276888444724
O           0.68516664616032    3.34512682080681   -0.34823561306857
H           1.24680166310201    2.63714323802310    0.01093663285207
H           0.29585002670509    2.98661125305282   -1.15106360555330
O          -2.15371533268503   -1.40416534950366   -0.27590913305431
H          -1.95834763580219   -0.46701970119901   -0.08411914758604
H          -1.86438122069514   -1.54137976543600   -1.20776671625037
O          -1.10752683720245   -1.46979299373869   -2.73589729002038
H          -1.64126316053392   -1.13702551770168   -3.45843877998302
H          -0.44935685100699   -0.76434550464167   -2.52959348221403
N          -0.22897953430147   -2.03856722413545    1.32578591786666
H          -1.06418405263755   -1.93419053226251    0.63641887643823
H           0.66484743412386   -1.93738795193481    0.80573321784902
H          -0.29574105528336   -1.19006375613240    1.96103601771835
H          -0.26777572250172   -2.90496435888990    1.85123425411694
