    26
        -50.46203161  Gyration_radius:  2.57146025414 Dipole_moment: 3.170
 S          -2.32184037200856   -0.43524709527716   -0.78207220592232
O          -1.82909117284239    0.85142057583878   -1.23402533935902
O          -2.46810711500110   -0.51138562394972    0.66559824563424
O          -1.53109670901436   -1.53905620899774   -1.30393577659622
O          -3.78130215100556   -0.58614718139792   -1.37912264765582
H          -4.13863696360754   -1.32170041418120   -0.89137909057056
H          -0.17961026389177   -1.91470544079484   -0.50093157457958
O           0.59559199812913   -2.05904793761277    0.09936890996551
H           0.38254977822270   -2.83925630023677    0.61309052107674
O           0.64662522785539    0.29121871726846   -2.07035565794330
H           0.62047849485384   -0.57985318261838   -2.47148419610740
H          -0.28620237086309    0.49103939465306   -1.85530302962698
O           0.01681063823223    2.48637479437214   -0.17902165595629
H           0.69622568066086    2.41663812105120   -0.85612855093170
H          -0.80503221932957    2.17554828745939   -0.60108929814304
O           2.28941262750966    0.68186510553207    2.56123884423041
H           3.00595392071453    1.21818780740747    2.89996403329138
H           2.50009341959814    0.50470820378174    1.62426982201535
O           2.53868155618985   -0.01500128522894   -0.09955537304747
H           2.43634086461022   -0.97046819127729   -0.04645219518469
H           1.95359937417912    0.24598598370406   -0.83541098879580
N          -0.07290620799283    0.28461822043500    1.35014580848211
H           0.41676937193752   -0.51197836075723    0.88981294929954
H          -1.09635660628255    0.04995002619263    1.31799053354888
H           0.32980992165953    0.41215266376520    2.28178091551494
H           0.08123925748782    1.17413934086854    0.80300700736209
