    26
        -50.46978539  Gyration_radius:  2.50672144773 Dipole_moment: 2.165
 S          -1.19743619213569   -0.63079741899270   -1.66772754973448
O          -2.42674807458298   -0.40463406292912   -0.94066236064397
O          -0.26529471708797   -1.48675676891244   -0.94132405711918
O          -0.57759404176070    0.60360281828651   -2.12099875489042
O          -1.58355911819788   -1.44941342287298   -2.96729993235341
H          -2.35344529479485   -0.98490103403212   -3.27800754692914
H           1.54217311785130    0.33690272286121   -2.26098014065269
O           2.00414472891555   -0.26826139455372   -1.67101380929116
H           1.30697353927078   -0.89056438616344   -1.39799249824073
O          -0.31137500649969    2.22229729334433   -0.09472370665773
H          -0.41908360253484    1.63108593700368   -0.88141561879623
H          -0.41895763355943    3.11858729584174   -0.41747788847359
O          -2.04148696928160    0.74537435488443    1.41619303261791
H          -1.45878384755327    1.45975519353547    1.10503753406386
H          -2.40358154842180    0.35940673759353    0.59025228379186
O           2.19838503016145    1.23085355000037    0.56681130556092
H           2.29289065953501    0.69472594592947   -0.25038712720532
H           1.35303749026011    1.69674272921793    0.46501879790121
O           2.01907203811303   -0.59030460205053    2.41278999114748
H           2.13298869512024    0.18421401670259    1.78911759671446
H           2.73796111850605   -1.19005334190962    2.20693161713902
N          -0.42521527797173   -1.29626696864215    1.68729175276378
H          -0.35591003571625   -1.49303468678913    0.65619687338599
H          -0.81015485052293   -2.09500862229076    2.17906315345303
H           0.54052400761391   -1.05049615582823    2.05228937938163
H          -1.07952422476201   -0.45305574923401    1.76301769306380
