    26
        -50.46971857  Gyration_radius:  2.51384007927 Dipole_moment: 1.846
 S          -1.27704643837452   -1.37056941007872   -0.34071735329162
O          -1.96079280004314   -0.11941482451841   -0.59460003954666
O          -0.82545907361663   -1.47583847967002    1.04400747282792
O          -0.19487441257130   -1.63579466618669   -1.26974276222780
O          -2.35331769728175   -2.50767202139054   -0.55589567546265
H          -1.85589620795260   -3.30956648120367   -0.42925871376064
H           0.74991696758059   -0.25366817728993   -1.52099712100023
O           1.13442228865981    0.64375607321560   -1.43636889988556
H           0.49745241667070    1.22847856771581   -1.88504829617561
O          -1.69853636236694    2.35672731861441    0.61404086840970
H          -2.06181842270434    1.49464355138638    0.35187580575304
H          -1.56955139819591    2.82831321946295   -0.21503677188078
O          -1.19322201322339    1.78304709375707   -2.28489449941103
H          -1.55012715176865    1.65901560341506   -3.16513845943765
H          -1.55720542866168    1.05625972919718   -1.73487812850415
O           2.74292279142992    0.03558637854314    2.29636592710373
H           2.50129802757359   -0.81129245707335    1.86433926882740
H           3.65219397604194    0.21202109103624    2.05235952424939
O           1.79147224312777   -2.05116552351947    0.82975822466267
H           1.83529166593527   -2.00805158406821   -0.12984204945049
H           0.84009985185725   -1.99421780628397    1.03372366338646
N           0.47642946238062    0.86994088341210    1.11924248950859
H          -0.06157687669085   -0.01465038866436    1.25010661519200
H          -0.18906524884807    1.66039210502444    1.21651012013279
H           1.28400093318938    0.86353387824282    1.76901675423202
H           0.84298890773329    0.86018632700454    0.12107201576581
