    26
        -50.47049362  Gyration_radius:  2.50815245216 Dipole_moment: 4.366
 S          -1.44551971063808   -0.55884007325105    0.20342866161872
O          -0.92374965238221   -0.79264132574201   -1.12794926142851
O          -1.14490936187686    0.81524628888554    0.65022138406648
O          -0.95866787838773   -1.52177126435600    1.17026406570989
O          -2.99574265892772   -0.67725253169990    0.10730747113557
H          -3.30141440709601   -0.31941450163274    0.96365419426759
H           0.60184711502237   -1.60196969457484    1.40084834070044
O           1.59136955344486   -1.55083880677345    1.51468636062956
H           1.79551494744543   -2.09752898141867    2.27483564146971
O          -0.23482716153717    1.26994527750345   -2.64146093017517
H          -0.45354791296271    1.00082089816245   -3.53534706795421
H          -0.58038903848646    0.56000120036932   -2.05803033789266
O          -3.20263122127550    0.82839381925043    2.27281050176365
H          -3.73411371887063    1.61709947976738    2.14186879131233
H          -2.33895652893017    0.99880485372701    1.84502922493674
O           1.63528315265691   -1.67413430502442   -1.33210063949612
H           0.67483463328009   -1.51147152079397   -1.36180728619440
H           1.82942860331898   -1.87602142931862   -0.40803606747327
O           2.24613655328941    0.88366881028811   -1.71948324985695
H           1.42843213847749    1.17123159845181   -2.18291206503452
H           2.20863192396363   -0.10206770744180   -1.74577213978565
N           1.47320091400833    1.04674839177999    0.73414399619744
H           1.82375374748680    1.82441910329341    1.28212540568188
H           1.85904126153603    1.06745267778359   -0.29354406063273
H           1.72979089591545    0.13545039681349    1.15872398636798
H           0.41720382133897    1.06466935608843    0.68649506996241
