    26
        -50.45930134  Gyration_radius:  2.6955029592 Dipole_moment: 4.850
 S          -0.84482283690048   -1.61457531962303    1.34597713918981
O          -0.95355761860014   -1.61757809079191   -0.09778674770228
O          -1.34085331603418   -0.37644097151888    1.93809330267115
O           0.49194165762269   -1.93045068365714    1.82264472218479
O          -1.78856046068253   -2.77640863578661    1.86858677421800
H          -1.58151191451039   -2.80949784468729    2.79735998699430
H           1.58250136839115   -0.90461537850331    1.28019952817545
O           2.19383193478646   -0.23045700929265    0.87738045836006
H           2.99229728938111   -0.24672978395223    1.40681131991622
O          -0.92898436294025    3.92619385392758    1.02168179965362
H          -1.36590888336770    4.25809709392254    0.23366448455929
H          -1.60537530548258    3.79694980657996    1.69089402721023
O          -1.20886172220957    0.55078939771000   -1.72169220914304
H          -1.35351384798159   -0.30912934883075   -1.28750097096816
H          -0.53094514173353    0.38077882486288   -2.41534186109003
O           1.43061255846040   -1.80065034320377   -1.35329916172604
H           0.55905125699144   -1.90506189266235   -0.92626797233273
H           1.96162294007276   -1.30828911202817   -0.71316460843984
O           0.79292573337069   -0.16804358570773   -3.34185842007308
H           1.13417929368303   -0.79516837190921   -2.65652489778821
H           0.57732610927710   -0.70557690481888   -4.10492950347838
N          -0.02230822465357    1.34287157178588    0.46943093712528
H           0.95245430381570    1.01095511607329    0.51537180422260
H          -0.58536756973090    0.74693937458345    1.13826617109091
H          -0.11439934784656    2.33885220755836    0.70830310942219
H          -0.44377389318918    1.14624603996719   -0.49629923226672
