    26
        -50.46244202  Gyration_radius:  2.48390256455 Dipole_moment: 4.949
 S          -0.93679395664891   -0.81046616911890   -2.11555400870746
O          -2.11425117732966   -0.09960352708838   -1.65985729255905
O          -0.97043191111803   -1.29569094598056   -3.45726514533425
O          -0.87180451694485   -2.15338728097728   -1.20406710333409
O           0.28512371871841   -0.08893857064375   -1.74558539056697
H           1.48220962863209   -0.63532708294002   -0.86840814124639
H          -1.22192047197965   -2.73310323988136   -1.86995607966688
O           2.24588607803423   -0.87225129184867   -0.27229834885427
H           2.96504595366030   -1.11683792087084   -0.85592285952790
O          -2.11243013203053    1.19979945010275    0.54644234113524
H          -2.11415511496077    0.64811142565523   -0.28697609345464
H          -3.02367650039869    1.46337650087620    0.68019093235653
O           0.07058147206676    2.32146722510438   -0.68255106222631
H          -0.80030192783070    2.22831342956196   -0.25939462222782
H           0.14085024144322    1.52317653652218   -1.25162136387589
O          -0.42734360980070    0.22743897137878    2.45698963497791
H          -0.26358284973373   -0.70718061845913    2.19518886818217
H          -1.14426448037214    0.54404260904131    1.87411424694172
O           0.28705961693093   -2.08593838700155    1.32658475297186
H          -0.29001400190642   -2.23331877089155    0.56523123847892
H           1.14255246015570   -1.85139663491234    0.93938531515513
N           1.56774672204699    1.32060362215035    1.20508855253003
H           2.04408944499900    0.52722796001578    0.73830552924446
H           1.04163474966890    1.86458819842910    0.44118593434101
H           0.79872680540070    0.91037043521228    1.84608756480782
H           2.21946377987729    1.90492405551589    1.71466262024547
