    26
        -50.47004022  Gyration_radius:  2.46965348928 Dipole_moment: 4.229
 S          -0.10925169149492   -0.20158718787430   -0.90359693215210
O          -1.51875389835357   -0.03426639369059   -0.59808200003482
O           0.68710390078005   -0.30300022973232    0.33732180544395
O           0.42462103321288    0.81910287158843   -1.77660313378806
O          -0.00625849605571   -1.59549685564912   -1.58968026834713
H           0.94093695755492   -1.73600721728747   -1.86689385184762
H           0.15835319977216    2.09593092261237   -0.72981102421108
O          -0.02378310810192    2.83035546728176   -0.10642145925136
H          -0.10784962839081    3.61854737386784   -0.64717896752913
O           2.52851023252785   -1.90232459419869   -2.07939880161259
H           2.90142813125123   -2.60137729603013   -1.53841665400498
H           2.85420151953913   -1.04809697419600   -1.69435173309640
O          -2.16519520509849    1.86262183639832    1.20584291733190
H          -2.32685675123992    1.26856283969695    0.45264089840230
H          -1.41388230917834    2.40766407609434    0.89261956229933
O           2.97416683291353    0.38394854778075   -0.84614177510034
H           2.56003237995962    0.98969774600711   -1.47125327193888
H           2.25597074443049    0.17895621421890   -0.21706425112111
O          -2.13525270966114   -2.08516969647759    0.92727545657224
H          -1.72587470186922   -2.86174684841905    0.54281408892887
H          -2.03884635650059   -1.37770880460270    0.25056706906308
N          -0.94058300425193   -0.14468170789792    2.34035833152030
H          -0.60265472390471   -0.12488465448447    3.29559141555890
H          -0.15277137211708   -0.18508437829149    1.62189781341558
H          -1.51744059593162   -0.98401640912565    2.12901098887902
H          -1.50007040013428    0.73006134235912    2.06895376674769
