    26
        -50.47004016  Gyration_radius:  2.46951930386 Dipole_moment: 4.228
 S           0.30076399536245   -0.42708330907255   -0.77264429727773
O           0.58597635040487    0.14786008073804    0.55860380953669
O          -0.84815175117038    0.22198020738680   -1.37812454399174
O           0.18724436042600   -1.86605794635141   -0.69898582323303
O           1.50894069152418   -0.03415154754507   -1.67267631851950
H           2.31896742784303   -0.50085884668456   -1.32638865487195
H          -1.14324255007435   -1.88085184311691    0.31363581192060
O          -1.93359304849182   -1.86401041009846    0.89353071992805
H          -2.39010784378168   -2.69370606024735    0.73900190145031
O          -3.06217820893751    0.46084404652469    0.14213032700984
H          -2.56588701386803    0.40373377895943   -0.69263384248617
H          -2.84630811851332   -0.38876065678010    0.57946513320922
O          -0.25377503940308    2.78303319009550   -1.40061556207661
H           0.65798744679276    2.86319900932264   -1.68481741493474
H          -0.49819782017180    1.84540520218894   -1.57072092321352
O           1.96927129600059   -1.97293987955944    1.39094026330943
H           1.46053034457115   -1.14299955179559    1.31396007792005
H           1.43477553299302   -2.61066586882219    0.90432550563048
O           3.56311151144773   -1.15970341396060   -0.54470613998075
H           3.09525126511726   -1.57623891460604    0.22430482105114
H           4.15588177262903   -0.50186134394631   -0.17559021962882
N          -1.14894277648492    2.01238385970055    1.00648077812832
H          -0.90678712570994    2.63428456637592    0.20867378184197
H          -0.39991053651297    1.25301516475676    0.97845919980509
H          -1.18298072028629    2.50001501369854    1.89420778604246
H          -2.05863943177886    1.49413545263966    0.77018381338226
