    26
        -50.46961587  Gyration_radius:  2.5472819663 Dipole_moment: 0.926
 S           0.86317665212918    0.99373650023086   -0.81166801392922
O           0.64886050871371    0.95239911180594    0.63773215677284
O          -0.29733834265829    1.49728332612358   -1.50497322472685
O           1.27106177053064   -0.33336942678294   -1.28837858762343
O           2.04013329809296    1.97737075248050   -1.09298008957150
H           2.84884270079827    1.48785576733523   -0.83506967141753
H          -0.25647894034186   -0.99584450264721   -1.60947497692040
O          -1.21850654951633   -1.17336156067824   -1.65829632915280
H          -1.55582303186878   -0.50311480145979   -2.25925293685333
O          -1.25274476495468   -1.91990613694327    2.67069091127229
H          -1.08881711204772   -1.75292184403336    3.59975079785324
H          -0.36727699264329   -1.96054875890721    2.24231084310509
O           3.79084961410639    0.04505055508702   -0.67452029526225
H           2.92958542634066   -0.36553939754179   -0.89435026109965
H           4.38770957563846   -0.16313307339684   -1.39656611409028
O           1.07422197204592   -1.59380715042208    1.37161454227868
H           1.06811630169904   -0.62842957776850    1.22144760666668
H           1.21114255835595   -1.97707687628912    0.50180590929102
O          -2.70018991991930    2.07898277506827   -0.45248878894474
H          -1.83935660540852    1.93446788731206   -0.89685107722726
H          -2.87378248688494    3.01862916110883   -0.51515124514392
N          -1.76691546904626   -0.12854135259800    0.75031854271227
H          -1.85707041938407   -0.77615807782381    1.56159472009937
H          -0.84948498101759    0.38148710504980    0.82662604966389
H          -1.70445943400928   -0.67292301165389   -0.14778554025864
H          -2.50545532877353    0.57741260725058    0.65391508241560
