    26
        -50.46151997  Gyration_radius:  2.56342154415 Dipole_moment: 3.533
 S           0.05981596493421    1.05975662122552    1.10615850296075
O           1.28930856341385    0.82613957187699    0.35572355207848
O          -0.10395650900252    0.09619998358865    2.18773690050125
O          -1.10022644035096    1.04322702780242    0.20510824084975
O           0.13107957393696    2.45121977369057    1.76958848939312
H           0.23217067051721    3.12586410146346    1.04149741771868
H          -1.70904698462370   -0.37035449870772   -0.27237302895327
O          -2.04859288159127   -1.27360260668968   -0.50003466838055
H          -3.00413984959706   -1.21023815648114   -0.47154655023759
O           1.97631998899357   -1.59724729054085   -0.23133584436661
H           1.73935764864271   -0.64923530064479   -0.04780477418009
H           2.90853313024419   -1.67788347523161   -0.02505568352115
O           0.24127967588578    4.10365635180392   -0.23040519242607
H          -0.60889215548453    4.54018960820470   -0.31578967238863
H           0.29606413429057    3.45116974616394   -0.97520492397994
O           0.23049653679210    2.02858164633926   -1.85459686027309
H           1.05650862041924    1.62000170846538   -1.56982354545195
H          -0.43259670084990    1.62974895914630   -1.25605219764718
O          -0.08625741759138   -3.06439762456201   -1.59457001255872
H           0.73040266089535   -2.55595291251612   -1.55060170595421
H          -0.80151014887790   -2.42229184046402   -1.65552012679077
N          -0.20310315003962   -2.26572374354336    1.19495222012804
H          -0.17337274842068   -1.33173035659495    1.73372324931409
H          -0.99635142933754   -2.18203167771498    0.52292847706843
H           0.67868068557020   -2.30032151041512    0.63523561390328
H          -0.30197144877137   -3.07474409565814    1.79806212319214
