    26
        -50.46152694  Gyration_radius:  2.5986612896 Dipole_moment: 7.377
 S          -0.01500468988743   -0.20106796015432    0.70134842343728
O           0.45412344016473   -1.21175761546354    1.61499774801239
O          -1.32897747874781    0.34878735033448    1.05503956276333
O           0.95466142520790    0.87617066654408    0.49927637107966
O          -0.28169778930866   -0.83961849767321   -0.69682424730192
O           0.41299263656483    2.34640556976601   -1.54917804098449
H           0.73358743666459    1.76596915947759   -0.80634461724134
H           0.62527063855876    3.24360646514623   -1.28452146372928
O           0.95968898119230   -3.70739666025553    0.85797188687629
H           0.77687376966949   -2.82697834112507    1.24939664490046
H           0.14328561004717   -4.20343388583115    0.92808736474868
O          -2.85200491950178    2.66406942768435    1.04407794719342
H          -3.23092823445745    3.00868045268913    1.85340262022157
H          -2.30535288822227    1.90267533029921    1.30111205955419
O           3.09345469323531   -0.70764783562276    0.60338058394022
H           2.42299379088191    0.00164188070169    0.59069108257641
H           2.89466049635395   -1.21959330821615    1.39244814719615
O           1.79721153799399   -2.18147442526864   -1.20636730071003
H           2.46543212683931   -1.66035810675285   -0.70499427450585
H           1.60981103175637   -2.95285389010757   -0.63617221468596
H           0.54997443963482   -1.37483056017791   -0.97702686360834
N          -2.00227435024614    1.38819186040077   -1.20083168107956
H          -2.36474480789367    0.78549349001583   -1.93196811990700
H          -1.75304159362724    0.81685782592524   -0.31925657435836
H          -1.08391938275954    1.84606021781796   -1.48964302561563
H          -2.67607592010524    2.09240137990100   -0.88810201875295
