    26
        -50.45768657  Gyration_radius:  2.40563382744 Dipole_moment: 7.449
 S          -1.69596066288186    1.20555202457300   -0.34218481694271
O          -1.95485168505055    2.59566568471951   -0.54313454366084
O          -1.88259651777505    0.77353066268362    1.04591109248659
O          -0.09230433558047    1.02605904718965   -0.59334895214938
O          -2.26114552086847    0.27689312104554   -1.29686398930025
H          -1.51644641213850   -1.05269322389323   -1.10246108522062
H           0.24893391506618    1.56679507691185    0.14179644636449
O          -1.02677673633975   -1.93153217979832   -1.03560629054531
H          -1.32203246227398   -2.43355162405049   -1.79735036431242
O           0.12000213078797    2.20628476352873    1.75343517163798
H          -0.12063402823574    3.13469756782776    1.76608681143714
H          -0.73848767281428    1.71273795422800    1.69848789396962
O           1.35316024523915   -0.41450349346246    1.84491615823803
H           1.13446000620187    0.51720827185309    1.96997508089054
H           0.50716271545157   -0.90621322353147    2.01183519695568
O          -1.00185148086857   -1.59660269942697    1.78071455418282
H          -1.46755815868746   -0.74649385054503    1.62438673400386
H          -1.11153689855636   -2.07814324636346    0.95250917769961
O           1.82486619551636    0.60491180993207   -2.43465106694973
H           2.36546873999021    1.38908179313604   -2.54159992368075
H           0.98693815138665    0.89516438999076   -2.02978946118294
N           1.55232897694409   -1.36248077410828   -0.58316992835847
H           1.86059968004735   -0.67236674161080   -1.29520223772104
H           2.13939798240700   -2.18989306667046   -0.58770381656245
H           1.54910982643424   -0.90739526019681    0.39358743908140
H           0.54975399662174   -1.61271280394460   -0.80057527039503
