    26
        -50.46874787  Gyration_radius:  2.44889342819 Dipole_moment: 1.938
 S          -1.68396611898204   -1.15099968663067    0.04549538188515
O          -1.54957526476921   -1.04328783664893   -1.39907253739027
O          -1.77839962342704    0.11351559055682    0.71785839790496
O          -0.62608854681022   -2.00264999079909    0.60752963500630
O          -3.03932790808694   -1.92600765921312    0.30821098752518
H          -2.94179693229714   -2.71531987453033   -0.21501974331679
H           0.47343786240226   -2.29741639771863   -0.69799912181878
O           0.99134331566860   -2.18936682685079   -1.51829033571404
H           0.32847986414238   -1.94214481147786   -2.17115474332491
O          -0.33463762520956    1.23259016748941   -1.77664278193895
H          -0.84262277947700    0.40510462624473   -1.59248872709577
H          -0.77653635721132    1.65316180224108   -2.51629138563450
O           0.55546057245272    2.96306917765394    0.17412250290805
H           0.08401579366934    2.40812634641700   -0.47237850386378
H           1.48898124894863    2.87362831871088   -0.02847514178155
O          -0.31274816651208    1.64365124397834    2.35942571543150
H          -0.04566873256046    2.33075415334192    1.71527398122468
H          -1.08182767264615    1.21301226648629    1.94420236778589
O           2.04657409635028    0.18170774992654   -0.86510707260507
H           1.32825002023931    0.68922926719919   -1.27684673052158
H           1.89876482576715   -0.73522703778578   -1.18882169727264
N           1.18645990157986   -0.34527642495990    1.58903451215940
H           1.86486995657538   -0.72947225320158    2.23743159508725
H           0.65385946988264    0.49109172949158    2.01176561830068
H           1.64645487407330   -0.05507213729988    0.67767895765513
H           0.46624392623595   -1.06640148260513    1.33055886940110
