    26
        -50.47163239  Gyration_radius:  2.41162588557 Dipole_moment: 2.531
 S          -0.62247914781648   -1.74930547527703    0.61204505725761
O           0.25610237991879   -2.48157001667931   -0.27271096648817
O          -1.88183265313757   -1.36479026674464   -0.00395049603658
O           0.03027165198673   -0.62064929368504    1.25643079722652
O          -0.98722602364440   -2.73928411868776    1.80072160914164
H          -1.22888441577394   -3.54056858447560    1.34726412943189
H           1.47072456569836   -0.64883820633155    0.35514212083212
O           2.28149291762932   -0.52297015824265   -0.17808511893584
H           2.45026173089212   -1.38960311770346   -0.55547140593491
O           0.95367861890059    0.95692823131918   -2.02104799985580
H           1.61092168140777    0.48333781976951   -1.47088050523760
H           0.34046799735396    0.25101127251711   -2.33188194765772
O          -0.63580577032105   -1.14265711784260   -2.39617312828021
H          -0.16114549181106   -1.77986767963643   -1.83289446473838
H          -1.47403594574684   -1.03331663064945   -1.93047192767620
O           1.54362501769805    1.55805709370794    1.79715373787552
H           2.33846050714836    1.23755548794602    1.35779897399939
H           0.98899927642808    0.76620105008133    1.90179061855146
O          -2.26868216814402    1.05899880591041    0.86201321760290
H          -2.20816297483443    0.14651947822072    0.48748076278764
H          -2.08057605972251    0.94954483084036    1.79690397143743
N          -0.15203143069522    2.34846702720184   -0.12130357545952
H           0.24387748812295    1.82538747705107   -0.97852668988924
H          -1.04298774263045    1.87676559238791    0.19759553889314
H           0.54926530912400    2.22786845729378    0.65243652654350
H          -0.31429932802606    3.32677806170484   -0.33137882537671
