    26
        -50.47292823  Gyration_radius:  2.43671045687 Dipole_moment: 1.961
 S          -1.52261167421419   -0.32987548221904    1.48706955512088
O          -2.14352965467278   -0.07446388976330    0.20782714810629
O          -0.23781671133896    0.36362385952317    1.61099878589679
O          -1.44419442016220   -1.72994395510194    1.82870034174875
O          -2.43885417264915    0.34397358644253    2.60015995934139
H          -3.08978907785806   -0.33722735843193    2.72913148039671
H          -0.65304008460954   -2.20275635099043    0.40719795423473
O           0.02690136904328   -2.31750790973680   -0.28652543679127
H           0.86608834916451   -2.14042558668634    0.16926441831169
O           0.42244651884815    2.35956646193177    0.07636554810392
H           0.12057299295368    1.62454963018637    0.66846681755626
H           0.47433146019707    3.14056746733285    0.62868259065445
O          -1.38806172450060    1.43706898962153   -1.79753888253745
H          -1.86134306490500    0.93038759378232   -1.10138622154285
H          -0.80270504136251    2.03136978398666   -1.30066841825458
O           2.35280444956876    0.67537688942918   -0.94883682468559
H           1.82523087782583    1.42551138553368   -0.62082424440131
H           2.44449216717847    0.07500086265210   -0.19029454893484
O           1.94904401240921   -1.00906725426022    1.20787119884895
H           1.13271858244285   -0.49862659401873    1.43162454946676
H           2.31851704260191   -1.30244834639291    2.04152754267809
N           0.33055137684582   -0.50450070062922   -2.19795227495837
H           1.23005298336810   -0.06746984779705   -1.85002554457261
H           0.43437419139386   -0.88988948230574   -3.12933009067261
H           0.07249929740686   -1.26102482844836   -1.50378651385056
H          -0.41868004496972    0.25823105636312   -2.16771890926924
