    26
        -50.46740567  Gyration_radius:  2.55098718435 Dipole_moment: 3.861
 S          -0.43784009560573   -0.64528728455292   -1.87590048739202
O          -1.58093904801980   -0.44888586963756   -2.71944900239669
O           0.55743143377066    0.41211183496589   -1.93632372790502
O           0.29732703997048   -1.97133934407417   -2.41340207351433
O          -0.75954648117333   -0.98137289717496   -0.48873545667305
H           0.68031757047257   -1.67731980844113   -0.05029730716727
H           0.06456172457407   -1.99380636601439   -3.33649202392680
O           1.55476264984047   -1.98175537943052    0.27954202617823
H           1.85804658804729   -2.62064053363504   -0.36744731118995
O          -1.59735601854761    1.92609672932734   -1.37564016926921
H          -0.66695865657544    1.77907269565278   -1.59858163426133
H          -2.05295775125497    1.22759309798290   -1.86428913336986
O          -1.80363306632046    2.67835507554885    1.21131896347691
H          -2.73282110924243    2.73415446519519    1.43725854352306
H          -1.76624597670405    2.52821778013284    0.24332128627272
O           2.24176816328597    0.75358083757250    0.09757350986911
H           2.44000621846534   -0.17972554449213    0.25956357896848
H           1.75757742265940    0.75360077776237   -0.75373352870548
O           0.71690807490574   -1.52709305619365    2.89359593367422
H           0.11505215518904   -2.24358526875344    3.09993209964687
H           1.16984764452745   -1.78085765907680    2.07110006427257
N          -0.02073550770070    0.67282793599084    1.46773661207781
H          -0.45767334072016    0.07431752640788    0.72751886129882
H           0.13315720068753    0.07595459436676    2.29607470906158
H           0.92024602814468    0.93929465811373    1.06857906023057
H          -0.63030283263828    1.49649098242480    1.62717660708166
