    26
        -50.46156196  Gyration_radius:  2.59428245222 Dipole_moment: 3.021
 S          -1.46241858588563   -1.69640843877441    0.39888402292874
O          -1.46750780212240   -0.80415191488958   -0.75233402224750
O          -1.80881258845599   -1.01056805083057    1.63440537554224
O          -0.22733912045805   -2.44713313072055    0.50636009487929
O          -2.62518134028718   -2.74265932266627    0.13011374341457
H          -2.70833983223585   -3.19030963678480    0.96657988088153
H           1.08173593604362   -1.43155313379056    0.53473449539224
O           1.66970706401986   -0.65640156304447    0.37035857340192
H           1.69103525524224   -0.59814089301625   -0.59784195031317
O           0.54608315717133    1.99118091859284   -2.59371036198498
H           1.40219699310326    2.35639723554571   -2.36632525440517
H           0.64252284175895    1.02015449110998   -2.58029768230970
O          -1.51077150817420    1.94508341903110   -0.81173245762307
H          -1.78675237601763    1.02298357307266   -0.94675894957869
H          -0.86870132777654    2.12729242054931   -1.52574984474990
O           2.22761313170907    0.96583482760965    2.65905764962711
H           2.78009006286650    0.65370994552643    3.37638276701701
H           2.32394523263843    0.32561975548310    1.94070991010221
O           0.70437587743880   -0.70275976228491   -2.19521487738896
H          -0.14062531006227   -0.78245327572801   -1.68228536087328
H           0.69365447207958   -1.42000923214777   -2.83014035528572
N          -0.22883480631329    1.04443012800983    1.28913535795369
H          -0.91852159589102    0.31242583378466    1.60694427861376
H           0.12871718585476    1.59962645486736    2.06382397298607
H           0.57270167401908    0.50835282521949    0.87759384751216
H          -0.71057269029512    1.60945652629468    0.52730713651965
