    26
        -50.46706471  Gyration_radius:  2.61392682546 Dipole_moment: 5.698
 S          -0.55467038976956   -1.89124986710220   -0.03952786170240
O          -0.44288270620628   -1.47532372041288    1.36444900559880
O          -1.36702675532302   -3.05845553103369   -0.22133702029629
O           0.93260050194948   -2.23759343125249   -0.48968527377993
O          -0.91359049354950   -0.74926785463017   -0.87582461157426
H           0.48638622853074   -0.07810290625221   -1.25494759609562
H           1.11521427772269   -3.02019425895264    0.06580758927625
O           1.34939305630654    0.37187435282588   -1.44734376506199
H           1.96746727136117   -0.35196356493009   -1.56983920207682
O           0.06262024528226    2.77275618473763   -1.86439352511212
H           0.56447533315136    1.94080807703765   -1.90648909425128
H          -0.15095446053747    3.00986122554236   -2.76783350189237
O          -2.02333772524400    1.64986208836510   -0.43617187367187
H          -1.86648964447047    0.73462329213217   -0.73689235131394
H          -1.40159521355510    2.19337327260770   -0.95542913550234
O           0.51860041041049   -4.10107479212456    1.33052053366102
H          -0.31079899645448   -4.12782172986465    0.82148073342249
H           0.35823941301358   -3.43678250815916    2.00949582936631
O           1.61436115392874    2.12194713424364    0.59658178825512
H           1.69743563235420    1.42385992767796   -0.08644959798843
H           1.32767378325635    2.90297300735856    0.11291359713732
N          -0.59494860417087    1.09495355939804    1.69998803211389
H           0.33383557513859    1.51621727408256    1.44569462026587
H          -0.52349870263941    0.03004163835416    1.61444678400433
H          -0.88694126439221    1.35751337199534    2.63434999879999
H          -1.29156795610881    1.40716575834513    0.95643587841245
