    26
        -50.46203230  Gyration_radius:  2.57047806623 Dipole_moment: 3.175
 S          -0.57951196428777   -1.83103586127567   -1.57925210761792
O          -1.54650389481365   -0.80239085153317   -1.93993208701152
O          -0.68980315638018   -2.25132556491845   -0.19576745861251
O           0.77847223565224   -1.44227797524442   -1.92641859394785
O          -0.94114312751707   -3.09798175377092   -2.45877452382113
H          -1.09599336271979   -2.72467464528536   -3.32086292251999
H           1.22248659714096    0.06898952602261   -1.56514571987664
O           1.35093987173140    1.02113869002190   -1.32184741912655
H           1.31483449181054    1.50566326031814   -2.14765061819068
O           1.53851419565819   -1.27514956816423    0.91043599282944
H           0.76814860102916   -1.71613481487082    0.50007885234882
H           2.23352509062949   -1.34349107405589    0.25260889448916
O          -0.70121774394170    3.08113308942955    1.50806097755752
H          -0.79367936980084    3.59860320545510    2.30776443128505
H           0.10744999415214    2.54566113085395    1.62159066035909
O           1.50125537071029    1.41422597969077    1.47329859656306
H           1.50753747854474    0.43877628096155    1.44852194158878
H           1.91013847812125    1.67239732172729    0.64122109961619
O          -1.17596064370292   -0.83149501032385    2.02718145796924
H          -1.20690630052202   -1.54639715352953    1.36528893968320
H          -0.32379522491453   -0.92128512981662    2.46384794318265
N          -1.05364256652242    0.90021807717726   -0.01659832465065
H          -1.49113635718296    1.80322844076509    0.18138742478843
H          -0.06654362669578    1.07156247348618   -0.30404118975282
H          -1.08189411257108    0.32334158232911    0.86722974863591
H          -1.48557098357096    0.33870035454089   -0.79222598577231
