    26
        -50.44096387  Gyration_radius:  2.54372488026 Dipole_moment: 6.663
 S          -2.02901896261233   -1.03288044558291   -0.32443802170807
O          -3.28633617507114   -1.64675757373826   -0.53450737221027
O          -1.94742645377056   -0.06334431932545    0.74104575317688
O          -1.47278626149989   -0.36326241223316   -1.61645676355032
O          -0.95374233166971   -2.12918178474650   -0.08168942496783
H          -0.09914185879295   -1.82223882741564   -0.52052439283326
H          -1.71549876753258    0.62780814725688   -1.51739694059751
O           1.88320166730920    0.93307165024865   -0.04820126178467
H           2.80229073692307    1.02954288286362    0.20537178323044
O           0.42129941889778    3.06952446521356   -0.84348070337567
H           0.76822642119006    3.36049303560767   -1.68804283923181
H           0.97678756809884    2.31887626817536   -0.54903179546962
O          -2.03122735975506    2.00347232383491   -0.99020994686673
H          -2.22337710863254    1.67697269322757   -0.09916790944809
H          -1.18139110434307    2.49866682048594   -0.92132013065736
O           1.35174615305961   -2.67361262542580    1.51234388069490
H           0.44827352347017   -2.93558753069461    1.30666028543988
H           1.79991023564044   -2.60369583644512    0.66503808630746
O           1.17015857015901   -1.30603689654708   -1.28230581175497
H           0.73059996149707   -1.04413440189555   -2.09616517122735
H           1.47606423715751   -0.46685263383524   -0.85513566047487
N           0.59263405473490    0.10584773918317    1.99980033057055
H           1.37028641795741    0.66240858811557    0.81956058174445
H          -0.37991440494345    0.07129894032714    1.69149424216925
H           0.90406909209430   -0.85506640034090    2.13687664561109
H           0.62431272043010    0.58466811368688    2.88988254722064
