    26
        -50.46980451  Gyration_radius:  2.40741201231 Dipole_moment: 3.201
 S          -1.15180077254635   -0.67970316607617    0.49970844845055
O          -1.58663929103117    0.30764167942532   -0.47584406575011
O          -0.66131724054212   -0.04589366866560    1.71851324903407
O          -0.14525818405580   -1.55905781481749   -0.09016226147730
O          -2.37706662102228   -1.54651324809226    0.91380286186116
H          -2.62743010766565   -1.97376638285742    0.06988614736578
H           1.39898416707096   -0.90820396569646   -0.11814306299434
O           2.21741793193950   -0.38042129656281    0.02065255910753
H           2.48323875055533   -0.63391052572527    0.92145090700993
O          -0.52853676078006    2.72573961561272   -1.20101174686809
H          -0.11401199314778    2.28017806152948   -1.95911065458666
H          -1.24156440713587    2.11577069664898   -0.94655322676218
O           1.74008895711352   -0.88122129383620    2.64638653076341
H           1.68313602468005   -1.73631734699274    3.07458893306815
H           0.82329772777028   -0.63260521904487    2.41837559891268
O           0.38627789265820    0.43861435527578   -2.37037815142947
H           1.17035303448217   -0.04964221257182   -2.10917078864935
H          -0.31171228197214    0.20240359309281   -1.73565814524542
O          -2.22702232455729   -2.26457924091017   -1.61967563138277
H          -1.29734480073890   -2.25116898528950   -1.33775875002703
H          -2.37139472349404   -1.44518564862509   -2.10157126509347
N           0.96403382086892    1.81526804035436    0.76464501745302
H           0.44924259051766    2.32525472344658   -0.01996404908349
H           1.61691026112670    1.07333586971916    0.36448163156259
H           1.45764253928210    2.45095396538827    1.38248650092870
H           0.25047580064150    1.25302943528391    1.29002343384469
