    26
        -50.44050830  Gyration_radius:  2.63583629172 Dipole_moment: 6.812
 S          -1.08551964548093   -2.36049157374281   -1.08698550892097
O          -0.84560458277304   -1.59299244335730    0.11903160385586
O          -1.40786708625202   -3.72633649710615   -0.92168775374624
O           0.17723375873734   -2.19482595491180   -1.99796541879193
O          -2.18855016760734   -1.66323301335647   -1.90365480712232
H          -1.94566371979783   -0.69583364369518   -1.95143919562172
H           0.87207093353139   -1.68224899223353   -1.51292941213823
O          -0.98909407838751    2.15656656357999    0.39595843602763
H          -1.62472877691057    2.79772577942257    0.71395297374309
O          -1.35369789386098    0.77909285542814   -1.91952467025182
H          -1.36648599748820    1.23245618416216   -1.05140328647757
H          -0.46869419385780    0.91611705621577   -2.27056617369622
O           1.26587703855476    1.90238144031786   -1.06980161053471
H           0.50577548208272    2.14757632483964   -0.50616025592397
H           2.01269430252225    2.41996850754684   -0.76535314043917
O           2.37909038301475   -0.07809816890395    2.19872411640369
H           2.90177482521468   -0.76379898292683    2.61610259716518
H           2.27932577144495   -0.33897332219562    1.26518388070082
O           1.55221460517120   -0.67865754070308   -0.36745131886237
H           0.68796166923010   -0.87433113070060    0.04952059183545
H           1.49618605390172    0.24672904663253   -0.69409229508020
N          -0.56375706941451    0.36744063591707    2.23577270347704
H          -0.82641769532836   -0.47217727230773    1.72579614430737
H          -0.84109161464842    1.48398819298191    1.14812268749664
H          -1.05698665715839    0.36478655436253    3.11893929373107
H           0.43395434558554    0.30716938467389    2.43190981885989
