    26
        -50.46541546  Gyration_radius:  2.57798226863 Dipole_moment: 4.769
 S           0.13401738315497   -1.22782387017451    1.18328741796683
O          -0.65370253776328   -0.25412291926907    1.93341568413607
O           1.50573809688490   -0.80242708003305    1.00651221903019
O          -0.52253344627705   -1.52679655269680   -0.10042405818716
O           0.17095162510805   -2.55729374394567    2.00368444063699
H          -0.73457866720498   -2.91513538387385    1.93655780453123
H           0.51693567680295   -0.85608128349480   -1.37858007907303
O           1.29170819138749   -0.28891621125066   -1.55607612775102
H           1.82322987523097   -0.46096499001408   -0.75719665860903
O          -2.20464214802040   -3.20852343171852    0.99556656286068
H          -1.74548869738797   -2.57136425264251    0.40987980228459
H          -2.23241741439034   -4.04477259702550    0.52574944871173
O          -2.16133053416348    0.80827002906716    0.06175131500076
H          -1.75498429942515    0.45180468735782    0.88491349637474
H          -2.26405299498442    0.03536379134077   -0.50039855581919
O           1.09078200653753    1.73598187589769    1.90221272597318
H           1.80630264040000    1.10093359535692    1.76778410976877
H           0.34512074568746    1.15577714764245    2.16041317729759
O           1.41904334259797    2.17731813187790   -3.04432383635964
H           1.54181184253956    1.24231323295797   -2.83283699317416
H           1.89547996122045    2.33872832091277   -3.85931585814996
N           0.14341575222629    1.96470347717660   -0.55736821974933
H          -0.86671861785357    1.69349250893023   -0.41625024430708
H           0.26188425626244    2.77504855445704   -1.16080789584527
H           0.57336291719650    2.08680737395780    0.40396852837387
H           0.62066503423914    1.14767958927474   -1.01211820592877
