    26
        -50.45897394  Gyration_radius:  2.57469422432 Dipole_moment: 2.005
 S          -1.91422104201525   -0.63915776920420    0.97515912509765
O          -2.16131629763476    0.69386808907361    0.46624728939082
O          -0.62488095422366   -0.71744316917654    1.66197302330969
O          -2.08882810479748   -1.67443346813534   -0.01992012261763
O          -2.99703256686930   -0.92526796001436    2.10300864205972
H          -3.77441168503427   -1.14352472963079    1.59808497344883
H          -0.89836339009411   -1.19940722501205   -1.08125874214659
O          -0.04073131745897   -0.95322560890431   -1.49170661135195
H           0.55903787175778   -1.66152591717902   -1.22847730585110
O          -0.90194981998112    2.84228359880493   -0.39520252839970
H          -1.45900706085037    3.61384163024346   -0.28939948790014
H          -1.44056080965066    2.07265077821255   -0.10485631067280
O           0.53853386835129    1.67346082715187   -2.56758745415181
H          -0.07593087399794    2.20198227779021   -2.04203413610047
H           0.13512492154068    0.80609862688322   -2.66949489343145
O           1.26292344480948   -2.29262007859269    0.67474801654057
H           1.28491713847634   -3.12260597688712    1.15281036386677
H           0.52668925944287   -1.77277905343021    1.07427965139615
O           3.22952600925505   -0.40072213543550    0.58703304053919
H           2.63909577464369   -1.17529589774750    0.68464488021679
H           3.77845514237007   -0.56860995656509   -0.18066792834034
N           0.90331708111362    0.89959855380340    0.23003131877539
H           0.65626583364977    1.88624959504324    0.09954611637105
H           0.62327115532370    0.36979683511002   -0.63413211764920
H           1.91135703639452    0.71870076588976    0.40870325450225
H           0.32871938546953    0.46808734790520    0.98846794310000
