    26
        -50.46786763  Gyration_radius:  2.43435668742 Dipole_moment: 4.869
 S          -1.12726856379950   -1.29182269869900   -0.95842831583072
O          -1.03594551594817   -1.27766535779720   -2.39495329728542
O          -1.51183506373182   -0.03826414756185   -0.35052859652636
O           0.06557093306589   -1.85364052229413   -0.31521573550362
O          -2.30515375698006   -2.31198949201925   -0.60655402419094
H          -2.30833455602527   -2.89277724628169   -1.36014788401220
H           1.40534978981893   -1.01528224450613   -0.03812396506442
O           2.20711841164151   -0.50057070852903    0.23936960991386
H           2.96008551738161   -1.05713641348849    0.03584824073097
O           1.56709193232894    1.98994432185507   -0.93268291108148
H           1.04854952939787    1.76352208419295   -1.73180534711002
H           1.94954220151284    1.15566715467790   -0.62578410992878
O          -0.18632299077447    1.20361418672490   -2.82731411741229
H          -0.44296006719099    0.26294905810445   -2.75977924726000
H          -0.99445236390267    1.70025099981139   -2.68467178759966
O          -0.44929227500332    2.17287161012797    0.73733607777221
H          -1.00460105010694    1.49697657228484    0.30344167488688
H           0.30252775875649    2.31213116517481    0.10190576199437
O          -1.07439515795938   -1.45285852096930    2.00569067878087
H          -0.63110150823023   -1.78493385853363    1.19515668966825
H          -1.87443062075245   -1.04005321708231    1.66521462551114
N           0.70816614463709    0.49429663441143    2.29724395409520
H           0.21798838791638    1.30461802848770    1.73687452838664
H           1.03241260790413    0.78900795504618    3.21068992882636
H          -0.00307980214595   -0.28708264047982    2.35540477262178
H           1.48477005823831    0.15822730733282    1.70181280561475
