    26
        -50.46190696  Gyration_radius:  2.54800842232 Dipole_moment: 1.866
 S          -1.11082401179882    0.15680811606275    2.12201252035380
O          -1.84161327832159    0.63891071763697    0.98359298965193
O           0.06507153270027    0.96769180209574    2.43840281807272
O          -0.75742023342701   -1.25508068355243    2.01950666571985
O          -2.06879145594715    0.28233843766813    3.38395219152427
H          -1.50721135210829    0.01816504925228    4.10636716015613
H          -0.98669915248396   -1.54197912979557    0.48006671247196
O          -1.15960367921937   -1.65931106965023   -0.49362346884626
H          -2.06069340859507   -1.98117047708508   -0.54944636377271
O           1.86949261630451   -0.55195126670157    1.19044576686567
H           1.25888895721310    0.01367792906455    1.70566798190991
H           1.73319048986330   -1.42966782074193    1.55528663057496
O           0.92530505050825    0.23642789612892   -3.42385556822725
H           1.23761504390599   -0.44886605259388   -2.78318183617329
H           1.68721910350763    0.77898114139012   -3.63110374404249
O           0.81396898090929    2.10726626470946    0.19215291726106
H           1.67096890788423    1.66976395766371    0.17558841537123
H           0.43666534251641    1.87480817188084    1.07020700608400
O           1.47054319718721   -1.37807773278059   -1.39505205281190
H           0.61074134820409   -1.78076848460941   -1.21594926807229
H           1.75013242809476   -1.00779686876670   -0.53698210726588
N          -0.81890781875378    0.86392495364613   -1.50182673434031
H          -1.69283997417517    1.36366779263657   -1.62554898186787
H          -0.28096640218640    0.72806099104655   -2.39053367077673
H          -0.21769139757368    1.40127221177331   -0.81159552590257
H          -1.02654085422166   -0.06709583628500   -1.06455046394690
