    26
        -50.46904426  Gyration_radius:  2.4377694524 Dipole_moment: 4.068
 S           1.26300453185348   -1.56929884275836   -1.17173591436183
O           2.31511958326261   -2.52024657411777   -1.31752571262672
O           0.21826549226471   -1.96697172011843   -0.22848552196176
O           0.53416054537689   -1.47806905344700   -2.59753541898301
O           1.68355002627502   -0.19495559068464   -0.90622930099785
H           0.51848406303913    0.67675508524601   -1.54211120331344
H           0.76074362148259   -2.33663658469220   -2.93432240671718
O          -0.23242550096900    1.24454960561908   -1.85953661269762
H          -0.14400309224485    1.27725882899001   -2.81275563719989
O          -2.01413861670913   -0.63522094117740   -0.80810830466235
H          -1.61612019080217    0.05693789306093   -1.35683402289375
H          -1.28325372084546   -1.26205804635221   -0.64009428791800
O          -2.03484088461526    0.43710154755870    1.60284272823687
H          -1.38563094327066   -0.14775737962135    2.03156890453755
H          -2.23327200369757   -0.00529503697879    0.73817783864723
O           1.75188289908622    0.99108401066744    1.46797266650552
H           1.33148360007638    0.27793702488360    1.98041540005394
H           1.94468867625554    0.58065382396108    0.59940282514568
O           0.16787126272916   -1.10842961231581    2.22447935220419
H           0.27885806405543   -1.87009442958830    2.79480808125066
H           0.19896687794351   -1.45883574698086    1.29696573042573
N          -0.41030399068916    2.23905837256574    0.68463052562264
H          -0.41984597869613    2.11235384314051   -0.33937588164069
H          -1.16728080268545    1.58772275446514    1.10876390777748
H           0.52885150152119    1.86345612837590    1.04565005113636
H          -0.55481501000289    3.20900063030370    0.93897221442550
