    26
        -50.46152640  Gyration_radius:  2.59631449108 Dipole_moment: 7.382
 S           0.49041724133018    0.43025483322923    0.33129382406774
O           0.66649644197309    1.42847260407337   -0.72998637901410
O           1.56271053129539    0.41368964701545    1.29379103071698
O          -0.82770997392281    0.56812205842697    0.95203695972209
O           0.47864302276547   -0.91084271006960   -0.46517715436935
O          -0.24467704158498   -0.92170922249428    3.08104268392878
H           0.60070441114744   -0.54138732662936    3.33579836504888
H          -0.59229654838179   -0.32019011224925    2.39537025234289
O          -0.72871070464972    3.20628413292982   -2.33134970723285
H          -0.52582131151457    4.14232530733468   -2.32104827772296
H          -0.17305335612618    2.79882198264361   -1.64570927265688
O          -2.75512547754131   -0.02557253950647   -0.65507921695781
H          -3.45372392996670    0.60255833886739   -0.46120801306069
H          -2.06097724694992    0.12338726590085    0.04304689189381
O           3.08553927416982   -1.72325002109900    1.70723692443997
H           2.60636662497424   -0.87258136094799    1.61487772039662
H           3.81043070503534   -1.68842767520256    1.08203640082727
O           0.60836523877106   -2.71557197939027    1.29739739869093
H           0.49483508236608   -1.69072068261488    0.20457790738909
H           1.56355902635919   -2.65069679845803    1.49448107232366
H           0.16945365865559   -2.25437447750700    2.04858280007624
N          -0.96315438103147    0.50344099969146   -2.49386432587159
H          -1.16960773907481    1.35677695157213   -3.02015003821072
H          -1.78974889921784    0.23240332994528   -1.87722503657851
H          -0.66813489604004   -0.26764527961690   -3.08336827168208
H          -0.18477973283345    0.77643275421337   -1.79740451848914
