    26
        -50.46916456  Gyration_radius:  2.49870004059 Dipole_moment: 4.987
 S          -0.39907426083754   -1.27648849850290   -0.58214192509766
O          -1.19729056246871   -2.02943692898549    0.36563092595288
O           1.03308729647683   -1.45189932289788   -0.39278123906611
O          -0.74937640497833    0.15031187080434   -0.53993521601294
O          -0.70812073371910   -1.78768972051803   -2.02527504036083
H          -1.67207333269822   -1.96924005711324   -2.04082352936309
H          -0.93774092939452    0.20343955084253    1.14392907084784
O          -0.81135756737734    0.16270442839198    2.11502797589344
H          -1.15113300114636   -0.70490221205960    2.35044857843592
O          -0.55239109076154    2.74258098994646    0.44150665216952
H          -0.90918236847805    2.56256347745230    1.31458116436693
H          -0.75876604773823    1.95998588716190   -0.09147042032734
O           2.08766841659778    2.35721016224679    0.07624021791561
H           2.02135098830642    1.94024361395490   -0.81135889811127
H           1.20554946212786    2.76144961296455    0.21416129725754
O          -3.17034597081424   -2.41167280620511   -1.31273757714014
H          -3.40908875691034   -3.33959730065141   -1.37064227041851
H          -2.64230718896999   -2.31009442143899   -0.49328899469460
O           1.42281379606345    0.80195929397132   -2.00897599032198
H           1.82486555229141   -0.07107601944098   -1.98682594781694
H           0.53281866231281    0.66318441510415   -1.64264151956691
N           1.81128733740680    0.20543597550513    1.48457476646795
H           0.90376034535447    0.28308479388358    1.99237759018517
H           2.01207097774990    1.14439258418834    0.96201426302047
H           2.57189309339947   -0.06060019924102    2.09973767176416
H           1.64108228811334   -0.52584918942512    0.73866837404291
