    26
        -50.47440985  Gyration_radius:  2.43432350358 Dipole_moment: 5.452
 S           0.45839975384918    0.83436216636384   -1.25336222396865
O           1.18766024858277   -0.41704992240982   -1.12166734157275
O           0.53143690288157    1.63756297066883   -0.03767198623431
O          -0.92753336158447    0.59546331174916   -1.64990515077284
O           1.14060640158649    1.67958135600103   -2.37178134712618
H           1.05703161243858    1.09921194581473   -3.15356718717322
H          -1.95463668200801    0.00147020680979   -0.57919017579031
O          -2.52343933625696   -0.38815465991610    0.13626205177009
H          -3.40039196799301   -0.47834266112504   -0.23961493229821
O           2.48584926387579    0.28134004811946    1.26012021029232
H           2.62399673645351   -0.35746268062998    0.55268520435747
H           1.91474832230585    0.95494080438316    0.85274698482360
O           0.61602889189134   -0.89367534828393    2.76541376555293
H           0.35262191538707   -1.54798614284857    2.07747801119186
H           1.44935790005133   -0.50156973963201    2.41510170372165
O          -0.21637842902276   -2.03961003610118    0.51515090101553
H           0.33696333863028   -1.54759579843761   -0.12101006104069
H          -1.12137469207045   -1.73560374928907    0.37238257606490
O           0.42754560788392   -0.45038352875199   -3.75573513948292
H           0.92737049635466   -0.97998332564115   -3.12212059461139
H          -0.41196699103560   -0.26016855781652   -3.31327965492308
N          -1.01625882526318    0.92392907776793    1.97631504291737
H          -0.43312321126979    1.35096970804860    1.20972321049680
H          -1.80313058388651    0.44517291520320    1.50588364300936
H          -0.36504471875516    0.16719029162840    2.44659244050818
H          -1.33633859302517    1.62639134832553    2.63305004927238
