    26
        -50.46384287  Gyration_radius:  2.48275336346 Dipole_moment: 6.070
 S          -0.17719300606673    1.00955766997272   -1.58138927616869
O           0.97862872661852    0.13446822355996   -1.48493029015603
O          -0.28816719934551    1.85079968844903   -0.38881792738587
O          -1.40950939788739    0.34774743192478   -1.91847542814854
O           0.12386423515506    2.00105719798436   -2.78775387210410
H          -0.69885687090598    2.00682062220703   -3.26752234252425
H          -0.85310062869564    0.17861186410029    0.24064824612631
O          -0.87442454084137   -0.58862488977178    0.82808065161509
H          -1.35063432515044   -1.28983189961515    0.30718289878315
O           0.63754038612519   -2.51073840091289   -1.89598839087947
H           0.74924856974017   -1.54133569772673   -1.88995965494865
H           1.37380934751124   -2.86694308345188   -1.39490214594109
O          -0.90950390999872    0.75687392839225    3.13927593305929
H          -1.70822512057667    1.28714542653040    3.13972793267826
H          -1.02060969442629    0.10395312401180    2.41407544704798
O           1.85273675022013   -0.80583563178223    0.83743631218769
H           0.96547967895128   -1.14315356400600    1.05214638315479
H           1.75597447591450   -0.51288481557562   -0.09238256394555
O          -1.92110175638051   -2.18007652575884   -0.97156012002586
H          -1.10480262186892   -2.56890776213901   -1.33396727897233
H          -2.04513413205690   -1.37083397846006   -1.49162500278782
N           1.21205171122880    1.56938059074072    1.73007388616264
H           1.66726914635332    0.63080108180303    1.49710797035114
H           0.68323098237324    1.83083242507877    0.84762381229828
H           0.48142974612133    1.39099594773966    2.46199527580548
H           1.87999943798798    2.28012103763449    2.00389957715605
