    26
        -50.43690932  Gyration_radius:  2.63972688452 Dipole_moment: 3.778
 S           2.45414973901347    0.68104052211938    0.58972935807697
O           2.00107493998707    1.85214204883161   -0.10331462910565
O           2.11756904173886   -0.57611553649599    0.01380837029539
O           2.06123008687240    0.75538942995678    2.06628851545266
O           4.02362832266529    0.77317241006827    0.69586310421212
H           4.20303388867277    1.68028134640174    0.93152535088744
H           1.03938030675555    0.56365728508322    2.16033445341407
O          -2.12078020384331   -1.38311364493785   -0.82815179804698
H          -2.74608228826905   -1.71850232689837   -1.47110358274032
O          -0.10608520169625    1.89604181091414   -1.88551049789000
H          -0.80749965650021    1.84077292297424   -1.22307152821437
H           0.70718967414517    2.01196691630537   -1.37064827801515
O          -1.09140114076295   -2.21875692672851    1.55207002984800
H          -1.80103478935858   -2.61447300084519    2.06031483548355
H          -1.44854390630672   -2.02701069167419    0.66383764261676
O          -1.96900923367239    1.11633189625247    0.13649577075913
H          -2.84111974066029    1.44674155145405    0.35658070512482
H          -2.08617533507841    0.21320420595713   -0.23828895930499
O          -0.38373891363610    0.28569653544849    2.19180187009736
H          -0.85635256309656    0.72995591326530    1.45953936555967
H          -0.51466387371090   -0.67817513581253    2.03874166097765
N           0.10097079069762   -0.94374914468478   -2.02755399957506
H           0.05162014456385    0.05558199702862   -2.24742609336588
H           0.39705876583628   -1.43894687633629   -2.85853259006304
H           0.83411409196154   -1.03791677298088   -1.32717302843089
H          -1.21853293631273   -1.26521675466530   -1.33615604805271
