    26
        -50.46152699  Gyration_radius:  2.59850991223 Dipole_moment: 7.388
 S          -0.55489553793200    0.30245154367564    0.36510398988021
O          -0.89916326437438    1.41541554757268    1.21321419829192
O          -0.00931776930822   -0.83238057341603    1.11077892021802
O          -1.65075367709924   -0.13406600121041   -0.50813247201814
O           0.53800407100252    0.74038482150084   -0.65841966038779
O           1.31552878146465    0.65895724127838    2.87542958215998
H           0.63181972375247    1.28854685795174    3.12112435380384
H           0.85317680311125   -0.01603827527188    2.34310906710388
O           1.16145312461049   -2.56262669979672   -0.40182984458849
H           0.93163018223835   -3.41943654304159   -0.03697385862377
H           0.81267617202967   -1.89365957767924    0.24788344876543
O           0.36200259316868    3.75060495448134    1.09708607195656
H          -0.07215439767682    4.28190334743984    0.42864848837881
H          -0.18780313257126    2.94549699192591    1.20315691338384
O          -2.81814386511951   -2.36178993746837   -1.67092750318178
H          -3.74152002290965   -2.56860997158127   -1.52274001676660
H          -2.61705352673512   -1.59354867555847   -1.11047404714160
O           2.29863821491542    1.90540745826065    0.72896592159278
H           2.18076644952204    1.43574230644534    1.58631762893267
H           1.30484833010794    1.19362628830156   -0.14555249949046
H           1.83836220990643    2.75889958513984    0.85167058489284
N          -0.32181936052797   -1.46543237533617   -2.26438843895524
H           0.35718496888475   -1.99772926034830   -1.63825483030001
H          -0.82437988492699   -0.78119508023676   -1.59747045853888
H           0.16413293417291   -0.96278026288543   -2.99942398802700
H          -1.05322011970580   -2.08814371013666   -2.61790156134502
