    26
        -50.46508001  Gyration_radius:  2.44433890201 Dipole_moment: 6.373
 S          -0.94313245653873   -1.15019688166431    0.03307679138732
O          -1.67708850392778    0.01003928385253    0.57036516354126
O          -1.14387241850005   -2.32528759657609    0.84760440814958
O           0.48813235017318   -0.81273102043796   -0.06300993811130
O          -1.48049059753585   -1.38318844716268   -1.39073342502627
H          -0.68360609150917   -1.46926020468501   -2.01103951611690
H           1.40227018075519   -1.96655622585589    2.21340603474478
O           0.58602641586668   -1.86273682265863    2.70849242109909
H          -0.12129109172856   -2.17910096774318    2.08476011626284
O           0.71179495295217   -1.34838445256572   -2.67275620971189
H           0.64306092584795   -0.43986907898262   -3.04985963071676
H           1.08665382183957   -1.22949500338170   -1.78685771968144
O           0.22624757224482    1.19168473376663   -3.32723988759641
H          -0.16627196972107    1.53233468143143   -2.48985202340152
H          -0.45445627382195    1.28934327018198   -3.99457801434335
O           1.43225997168802    1.48429836376523    0.69202287668658
H           2.32384117199430    1.60130578049731    0.36148628483912
H           1.11878448948567    0.60604704039533    0.34702157805646
O          -0.79632207185191    2.00376255704644   -0.98881208408474
H          -1.27931502693825    1.29485348471517   -0.52427185923007
H          -0.01764749777633    2.17700833099190   -0.44295332358995
N          -0.25008993197128    0.62187596381105    2.61444249675130
H          -0.66540545110697    1.06020987370280    3.42918081081397
H          -0.97320205141933    0.44139442120712    1.83327182459133
H           0.48914656731198    1.20162193335730    2.18492571994837
H           0.14397302414081   -0.34897301702684    2.82190708472671
