    26
        -50.47068271  Gyration_radius:  2.47668378585 Dipole_moment: 4.019
 S          -0.09589947217712    1.50006379519117   -0.14830695005000
O          -1.03680467764015    0.77546351259793    0.72620760869245
O           0.91069670203968    2.17339793983781    0.64165516730768
O          -0.94215829974113    2.55122500337687   -0.93603733655998
O           0.46951599147956    0.60165723035647   -1.14210164137654
H           0.87541908839442   -0.92037913757729   -1.94652949599333
H          -1.24776247496730    3.16821600108299   -0.24041924824630
O          -0.57157963212576   -2.91465513175303   -0.44135977243421
H          -1.32844094164023   -2.34559899831423   -0.70529224780070
O           1.18738785181422   -1.81987918033950   -2.14418245203214
H           2.12985451560592   -1.81646794396113   -1.96622353234065
H           0.09467139663459   -2.75648167950708   -1.14305957069162
O          -1.22573374578012    3.52724005302111    1.49924890741931
H          -1.69892519093611    2.76582693638164    1.84758786036847
H          -0.29136684614310    3.25764432709068    1.46266578662988
O           2.47925489584298   -0.14627620702047    0.43877774236049
H           1.88783012086543    0.14388008229532   -0.28432366070647
H           2.65797084475640    0.66943544996571    0.91718569284969
O          -2.13991561994158   -0.84398196588508   -1.12120813275768
H          -1.87009797024089   -0.21598125528482   -0.42633529904686
H          -1.76345087000973   -0.50127696630821   -1.93519983916220
N           0.31293206337648   -1.38336984305220    1.44269924120283
H          -0.30196855012255   -0.53962284910373    1.30561960740148
H          -0.03275575560570   -2.12525682478160    0.71564849310775
H           1.28084755276629   -1.07250433269995    1.19002646660416
H           0.26047902350419   -1.73231799558853    2.39325661521637
