    26
        -50.45282110  Gyration_radius:  2.68752909408 Dipole_moment: 3.802
 S           0.49796057096347   -2.13347220951959   -1.67631122904790
O          -0.50826838106550   -2.71469972259140   -0.78389227783487
O           1.72882144455195   -1.80323783480928   -0.99803295923908
O          -0.06947474468009   -1.02505081086929   -2.43257771049486
O           0.84875654741755   -3.25529738709367   -2.73904003765344
H           0.05167948048901   -3.28623267552372   -3.25809802435542
H          -0.26723799426214    0.34476839976652   -1.55393588125711
O          -0.39332423740655    0.96001044545117   -0.79188002130539
H           0.28814736118053    0.66366398988500   -0.14288127696639
O          -0.74471484135721    2.42669923161058    1.65777898798731
H           0.15445664786174    2.75211850796946    1.51988339419862
H          -1.06120564959393    2.21769158304081    0.77203439011535
O           1.49157161298890    2.96093152139727   -0.04947890444797
H           1.84977648534747    3.67405478304779   -0.57862124581472
H           0.89494023574972    2.45508915411586   -0.62195413490976
O          -0.60953478091993   -0.10289271184445    2.64222747074333
H           0.28650137658872   -0.27272385559523    2.31188862142752
H          -0.73075050730416    0.86204862451388    2.51900797845727
O           1.47511619077372   -0.03215466862125    0.85867968037502
H           1.65087520737889   -0.77577014198582    0.22599302933986
H           2.23425054607327    0.55398922679029    0.81300586240365
N          -1.84838814282950   -0.89945936670293    0.46881420545896
H          -1.58999707577528   -0.06935933969936   -0.11124627610340
H          -1.33654612305863   -1.72684852900658    0.01144158580645
H          -1.44478383788089   -0.71346674439126    1.44182417170030
H          -2.84862739122844   -1.06039945931812    0.49537058141021
