    26
        -50.45671057  Gyration_radius:  2.43825647742 Dipole_moment: 2.141
 S          -1.45844957312644   -1.18751099191739    0.33574438673073
O          -1.53615036266410   -0.14545634296902   -0.66672108018211
O          -0.54412827704816   -0.85658559764890    1.41561689511592
O          -1.15574016000112   -2.49664692667502   -0.23299523795523
O          -2.89988464503745   -1.30857852076990    0.96286909588804
H          -2.82951394445216   -2.12248962681080    1.44994919724369
H           0.17207769515567   -2.54816803292959   -0.92095014633078
O           2.17032626171501    1.17416192595637   -0.30657471793039
H           2.81234853346204    1.87376516734037   -0.42782543668589
O          -2.21596050841371    2.41692239853721   -0.13651680343534
H          -2.04127025546683    1.47559406469638   -0.31980115030214
H          -2.85157673917650    2.70110558684381   -0.79483164760877
O           0.65196871500828   -0.04711331340160   -2.16354592122108
H          -0.23408309176492    0.03190008782463   -1.75027347201088
H           1.24945161211208    0.50165185820803   -1.61019410759343
O           2.00408413208892   -1.29291441079954    0.81319677002922
H           1.11557321857013   -1.16651559034175    1.21419436765148
H           2.26974122277801   -0.40730928637828    0.49546846648393
O           1.11527421357810   -2.33517401256460   -1.27792433996056
H           1.62842449950647   -2.02311433290963   -0.40811463116647
H           0.98028214015494   -1.42555957211375   -1.80943981271914
N           0.27215443030651    1.90134119204602    1.30030752573169
H           1.44425734869965    1.53719564834874    0.31716055927635
H          -0.47128023238726    2.41390310270188    0.83432871081405
H          -0.10610286429474    0.97596260088570    1.50347925143512
H           0.45817662068559    2.35963292484517    2.18339329872889
