    26
        -50.46433416  Gyration_radius:  2.55610890262 Dipole_moment: 4.430
 S          -0.03215100778002   -1.87803919787922   -0.72592847732209
O          -0.59898108935723   -2.19439826095651    0.57936267870066
O           1.36664371348932   -1.51811206737948   -0.65634967987060
O          -0.83607659166326   -0.89446405574942   -1.43445682857144
O          -0.10931932762095   -3.21146222831112   -1.57483416686882
H          -1.04801912244924   -3.35802879915986   -1.63084374379273
H           0.21192016088054    0.39168487552772   -1.48609566672397
O           0.84120618172268    1.13731537476758   -1.36479590560387
H           1.70334415631549    0.71471581655101   -1.34488732907651
O          -2.43052467108371    1.04577584100957   -0.35457522675363
H          -2.03080928417848    0.24587434638424   -0.73687260305783
H          -2.32561263379629    1.72539541661694   -1.04422321715418
O          -1.24892797857792    2.93220717309732   -1.99912090507155
H          -0.45003214755935    2.38592143936739   -2.01794932145649
H          -1.04084231470967    3.69427277395309   -1.45488400639074
O          -0.31166921915587    1.78147954173270    1.01481780663956
H          -1.21459770186620    1.58689348263054    0.64630080435437
H           0.27043792216649    1.70737911945349    0.23316325848838
O           2.70506678033072   -1.08912770476558    1.56922220174627
H           3.19160265649462   -1.88853128027800    1.77522813155006
H           2.29755444452765   -1.24280784750221    0.68535334945510
N           0.21403067042246   -0.41334599738864    2.29700486753124
H          -0.00234376038619    0.54829327175575    1.84824103184532
H          -0.21632262341393   -1.15667736156473    1.67259907908466
H           1.24224638391211   -0.58134060242532    2.26225714516295
H          -0.14782359665963   -0.47087306949018    3.24226673315736
