    26
        -50.45653740  Gyration_radius:  2.63546805111 Dipole_moment: 3.545
 S           1.14771002620347   -1.81759088170573   -1.03162187622348
O          -0.08162210545397   -2.28468031951641   -0.38755075564042
O           1.76800288134085   -0.74132331118205   -0.30120800022828
O           0.93187649742599   -1.52832239486646   -2.44103790063623
O           2.15487376555877   -3.04751458012684   -0.99053487104090
H           1.74194045795593   -3.66124459791028   -1.58994046552431
H           0.29841621586555   -0.10593602527836   -2.39827465966202
O          -0.13900833747819    0.79262897803127   -2.41375288742126
H          -0.00310670124781    1.12668667936228   -3.30267352632663
O          -2.39729589989607    0.75441249854986   -0.94663823533274
H          -1.61347937084473    0.78793701790326   -1.53627105967270
H          -3.00239993204017    0.12975500543929   -1.34948304234772
O           0.19302597906442    2.64078446251065   -0.39204876271365
H          -0.74808757458025    2.79620936481502   -0.28548768167908
H           0.27491880093591    1.99956573844176   -1.11977066933292
O           1.24284930646951    1.08355954067700    1.54316810596183
H           1.71033832856437    0.44531201781660    0.96977639680758
H           1.04139246293870    1.83909311608755    0.95575085468548
O          -0.26739579230948    0.10068209756153    3.75390892075487
H           0.12455154500342   -0.04802033331344    4.61474271127284
H           0.40632050816693    0.54721764073802    3.21993177002453
N          -0.98166183684657   -0.36281825215950    1.09661524595052
H          -0.14148944193984    0.25267993736974    1.26860587372235
H          -1.66455452559694    0.12568850925594    0.48596465771351
H          -0.63248133822354   -1.22159932913381    0.56798478572196
H          -1.36363392902861   -0.60316257934883    2.00984509115715
