    26
        -50.46886035  Gyration_radius:  2.49648184928 Dipole_moment: 5.081
 S          -1.74997706214416   -0.30886739937682   -0.09764367409110
O          -2.98152613120896   -0.66094458189814   -0.74184938213781
O          -1.90816338939223    0.14260401305418    1.28634251764707
O          -1.14243990036561    0.96436948871391   -0.86270527400297
O          -0.69046083468111   -1.30069059830551   -0.20936109557412
H           0.12264164393828   -1.20521740598716   -1.63787796337542
H          -1.90363972526975    1.57930362854236   -0.82225266069237
O           2.81541143267707   -0.49963938507662   -0.89647532947846
H           3.61795362979591   -0.42337537646867   -1.41399243227636
O           1.40394805422580    1.68199637364471   -0.01544304548849
H           2.00828871744355    0.99365915934337   -0.35501269548633
H           0.57666942716362    1.56752433028030   -0.51011172807646
O          -3.52099945877030    1.87550410294104   -0.23212105206316
H          -3.72180732493193    0.97605686663575   -0.54891804818367
H          -3.40444777802305    1.77325709196372    0.71792718063626
O           1.52257943365994   -1.80947502481572    1.21867518212876
H           2.17648400650467   -1.48640330474327    0.57904014607032
H           0.69159420120090   -1.87903123585358    0.70977174916140
O           0.76386382072021   -1.24279601965373   -2.38484243603145
H           0.64756235202955   -2.10703331513070   -2.78333816371281
H           2.10174399886153   -0.78659122123632   -1.51970199601202
N           0.52238991733063    0.44449283001665    2.14091222128289
H           0.93202044156201    1.09600200512177    1.41132489206893
H           0.98944554681614   -0.49636429666887    1.98837775559986
H           0.64087070014165    0.79108660904411    3.08590795359565
H          -0.51000573928687    0.32057265590569    1.89336736849765
