    26
        -50.46135398  Gyration_radius:  2.42433611109 Dipole_moment: 4.518
 S           0.16478303516096    0.10922610595113   -1.16137562309655
O           0.30445650628544   -0.22925104914362   -2.66524849471474
O          -0.45173179702331   -1.05213993279317   -0.50434525203338
O           1.48839011104738    0.35844522868298   -0.60736707929901
O          -0.70496378191778    1.27318172619076   -1.06904008626604
O          -3.15240300028511    1.39890303262710   -0.12066645115590
H          -2.27565553123939    1.50149765023322   -0.55597146586784
H          -3.77766021496281    1.18301260319696   -0.81461313274310
O          -0.38080692990522    0.58089245467896    2.71223451738433
H          -0.12464849008623    1.40448083879998    2.21512003653399
H           0.35981445097244   -0.05466200344801    2.53371736175682
O           1.37241789988470   -1.06145497205198    1.62417434817442
H           1.54177556160104   -0.50046254227565    0.83666791555612
H           0.80236541502030   -1.76332219725264    1.29625744977195
O           0.46318193475881    2.41997416909364    1.03840060712176
H           1.37214442734770    2.17588157860486    0.83905710046340
H          -0.02967597747117    2.18617416107475    0.22896315458962
O          -2.10462525368387   -0.46779689643549    1.30106946827740
H          -2.65288616697492    0.26402030622170    0.86972920242272
H          -1.47907303069659   -0.79282660203739    0.55052492391534
H          -1.38971041976653    0.03120492919406    2.02667767185993
N           2.22390703300827   -1.91076324722195   -2.13260044052531
H           2.46242946545413   -1.23366816987216   -1.41346015757654
H           1.90975063645890   -2.76055985955487   -1.68303497015383
H           1.00765444039413   -0.94011837975544   -2.66816427545993
H           3.05076968662676   -2.11986892270548   -2.67670629894021
