    26
        -50.46928741  Gyration_radius:  2.43265385604 Dipole_moment: 3.480
 S          -1.96458372196508    0.49530775717015   -0.41987420287221
O          -1.45900875626242    1.75847289149866   -0.92684034897776
O          -2.30412801022394    0.52944833134742    0.98373853292221
O          -1.06401435149125   -0.60554854591897   -0.76226929065484
O          -3.30573630152594    0.17521338302801   -1.20428585230873
H          -3.96297553188749    0.70041222884117   -0.75828499956548
H           0.10854710960247    0.18055723842261   -1.63839687415408
O           0.85937762578824    0.70349207392206   -2.00061025983984
H           0.45240440953694    1.54869904555948   -2.21346081228356
O           1.12481011776896   -2.25462880027271   -1.36319695543235
H           1.46942805439185   -1.66932447051494   -2.04246690044691
H           0.22162583350140   -1.95159737014451   -1.19481866572896
O          -0.17917220145340    2.13400886278357    1.33069156601442
H          -0.85429368575776    1.58456322439670    1.75401614041963
H          -0.57976917431215    2.28848313162318    0.45064108222264
O           1.90819503855658   -1.67906507331368    1.16042874846396
H           1.03134765845303   -1.77240913059911    1.58372936802977
H           1.78914883337755   -2.09362332947426    0.28081887571164
O          -0.71619613109559   -1.62817404485489    1.71587491266252
H          -0.91463100419295   -1.36195838676162    0.80109549070599
H          -1.33572978658236   -1.12077538052536    2.24568707738758
N           1.95785267791736    0.81953777952319    0.44935742946354
H           2.84908670131562    1.28133840176146    0.59255448713679
H           1.69668414643085    0.80059552513217   -0.56846364045540
H           1.99031016870472   -0.20561129534060    0.80475517904285
H           1.18142028142540    1.34258595270711    0.93957990251595
