    26
        -50.46607187  Gyration_radius:  2.44370833387 Dipole_moment: 3.557
 S          -1.39770154474686   -0.88447760859539    0.84748153501124
O          -1.28098598646245   -2.28379165078536    1.16819035887885
O          -2.61049697915062   -0.24761538353150    1.29964313198483
O          -1.47884727587419   -0.83592039292005   -0.77487684499010
O          -0.20536756759509   -0.10820946855396    1.14514539356995
H           1.07747241014581   -0.74937455978166    0.27625137716583
H          -2.20571144228359   -1.42903611665291   -0.93229949735936
O           1.82112521675408   -1.04230889611960   -0.29166629745215
H           1.64309796441135   -1.99199009357138   -0.41771168684487
O           0.62736127405838    0.26068342406868   -2.24889619104387
H           1.24735653898789   -0.26070732074943   -1.67827654504521
H          -0.22848820224467   -0.16014106498688   -2.09501200931992
O          -1.99240706258392    2.14494191315280    0.53918041491782
H          -2.24436413691863    1.21700324759091    0.77758452163033
H          -2.07022857848409    2.63832471423840    1.35850681058845
O           0.62021549800266   -3.46736309917829   -0.23810999699759
H          -0.11550408789155   -3.07267435673745    0.28077025358460
H           0.90357018174867   -4.23685077050098    0.25813963842037
O           2.01859713776751    1.41028876179728    1.30963180154959
H           2.57389491271932    0.74400129970228    0.88767885955299
H           1.24812961133397    0.91302935044388    1.63061215479110
N           0.41369801951979    2.31588371070431   -0.62927458887612
H           0.55389127766037    3.23705453432579   -1.02914713551327
H           0.49761492386229    1.54975432451561   -1.37427518576270
H           1.12533938393913    2.10029369698099    0.11832287072584
H          -0.54126147666987    2.23920180513493   -0.18759315317133
