    26
        -50.47523156  Gyration_radius:  2.42132076044 Dipole_moment: 2.928
 S          -1.37074708968430    0.62913009583593    1.08964095137485
O          -1.54900523763013    0.61770358909594   -0.35632997035749
O           0.00389473098347    0.89754965607709    1.46775171121825
O          -1.91556047122362   -0.56229053701524    1.70816847196154
O          -2.21362542720309    1.84665596430522    1.63712936156901
H          -3.09533600871255    1.52863818569963    1.48210121703947
H          -1.03043850033625   -1.85327007496439    1.37494580824020
O          -0.46941050666714   -2.61820904573353    1.08276040667419
H          -0.73381597812736   -3.36194958355345    1.62654897610224
O           0.37113044462596    1.79221109738370   -1.81522214064516
H           0.78418917000934    2.38311743703017   -1.15641291811259
H          -0.45194556869030    1.48586004427330   -1.38401097211739
O           1.27129322356950    2.98421164106101    0.43147605034522
H           0.75355298183962    2.29932459017779    0.90311804807723
H           2.13106034627283    3.00578686405625    0.85439713092688
O           1.74911339596998   -1.01035771117044    0.83592414349306
H           1.17035905269702   -1.77475795033392    0.99451301831566
H           1.22845544722259   -0.25187866891177    1.17103912008687
O          -1.00558313006685   -1.75365311631590   -1.47907359513624
H          -0.88467119299029   -2.29133062940122   -0.67888859637520
H          -1.38520470112777   -0.91056422284810   -1.15763667479508
N           1.36073902171479   -0.62496904951699   -1.74982612059381
H           2.04842909514446   -0.91060594005155   -2.43633224675844
H           1.08006547182453    0.40370087405747   -1.86225654473401
H           0.45748592174691   -1.17721480454702   -1.82861196359445
H           1.69557550883755   -0.77283872468717   -0.75491265220343
