    26
        -50.47611857  Gyration_radius:  2.40922626357 Dipole_moment: 3.948
 S           0.20779705706884   -1.57919502449423    0.78007289902143
O           1.62393988711882   -1.76785804999918    0.92381514414844
O          -0.24896777006319   -1.72867063717711   -0.60884910932286
O          -0.20685378905269   -0.25911994977259    1.28918298115641
O          -0.54460510767587   -2.63564649896258    1.63390229388497
H          -1.47684852613807   -2.50648828623225    1.35500753126400
H           0.77968771499131    1.02226834112971    1.21486431839544
O           1.32435236362905    1.83701085849060    1.07477494533894
H           1.53004184423195    2.17423534250558    1.94767204796661
O          -2.32852183548524    0.90134309801578    0.38204270882026
H          -1.53219200106710    0.43900525136481    0.75305006279727
H          -2.70904161278631    1.40287449828854    1.10523605570649
O          -0.40792532950778    2.24384022236051   -1.07409975219743
H          -1.21662635758269    1.85613903780809   -0.68833560080564
H           0.19884799890279    2.38277127178595   -0.32866590841469
O          -2.72220898294691   -1.91515221848301    0.31510734432022
H          -2.95328912244389   -0.97541702412698    0.34986917088119
H          -2.02161198225012   -1.96917119488081   -0.35590565589032
O           2.93836058280592    0.14512876008521   -0.38957798145499
H           2.64867440374948   -0.64982265658722    0.10747330164677
H           2.65704710083540    0.89567921556465    0.16038441277653
N           0.89249650007259    0.14159099493284   -2.02603028007864
H           0.38421533749625   -0.66901736666494   -1.57238824262021
H           0.35283973708369    1.02663007879941   -1.79947404402707
H           1.83440911459994    0.18341240781388   -1.52428705991299
H           0.99598280438543    0.00362953842378   -3.02484157338662
