    26
        -50.44910831  Gyration_radius:  2.46527562809 Dipole_moment: 6.132
 S          -2.09444868260706   -0.85259760662623   -0.80139035803082
O          -0.97494553189464   -1.56441107333571   -0.21167261368136
O          -3.17087859214002   -1.65431714837113   -1.24561758067349
O          -1.55025536833250    0.03659242482751   -1.93698042526583
O          -2.60166847230924    0.17297876919763    0.24405652223804
H          -2.10167063924750    1.03695979602524    0.11595291509715
H          -0.51485336304733    0.04221375697349   -1.98676062675302
O           1.33698156840048    1.92256851464592   -0.00774103273492
H           1.94351718206440    2.64352528974790    0.16252250031275
O           0.96456708078498    0.14963542852495   -2.00532611919208
H           1.31920031875764   -0.66562559280312   -1.59456388083067
H           1.18650509215826    0.86910518600245   -1.38115225087480
O          -1.28826977694368    2.31289824566451   -0.26602451024045
H          -0.32341955946503    2.20982991323655   -0.09667149371746
H          -1.39405639362858    2.35027926296798   -1.22077120732987
O          -0.86768340124173   -0.77341544701029    2.37892795615237
H          -0.93579445169013   -1.18619918639642    1.50084084875307
H          -1.66572706326172   -0.24969262231147    2.47568196223765
O           1.59256608458087   -2.07734198547484   -0.59546061556061
H           0.64571350721678   -2.00413629940351   -0.35601543882120
H           1.69877404445011   -2.93612033553426   -1.00780737449104
N           1.80452097139225   -0.00911122133611    1.63961620303026
H           1.53447125568945    1.19025798212603    0.68927676998041
H           2.04548262831629   -0.80473772249508    1.05694774828134
H           2.50149241410516    0.06894617170281    2.36894206918486
H           0.90987914768887   -0.22808449056235    2.08119001295339
