    26
        -50.46095992  Gyration_radius:  2.53253176809 Dipole_moment: 2.761
 S          -1.39032333014037   -1.27136500544549    1.07959761838044
O          -1.37177065126252   -1.11924362777571    2.51303068573731
O          -2.25817086956481   -2.27291249198387    0.54328020188726
O           0.12459430467217   -1.78302509157692    0.71493161136150
O          -1.45458452562429    0.01455780013863    0.38060938786527
H          -1.56539315359247   -0.67060245536122   -1.12344143138649
H           0.16466415511010   -2.59729974641238    1.20672808822159
O          -1.43268213933337   -1.18730878267892   -1.94308351673886
H          -1.72159484997193   -2.06966795127354   -1.69435911013117
O           0.80807501274010    0.03666184723286   -2.66760914391154
H          -0.00547066808033   -0.46994240063440   -2.43092681982860
H           0.94178649280352   -0.09273212121058   -3.60752636893561
O           0.13216872327457    2.52304443887124   -1.60514292526396
H          -0.82513713694535    2.45742617684497   -1.59632399101646
H           0.44592307721512    1.71872992220139   -2.05726437454218
O           0.18280037792157    0.88365214025903    3.30803081161799
H          -0.39092362511510    0.13242714227173    3.03400173035916
H          -0.12557331965801    1.13646059207066    4.17893266494977
O           2.31343523740735   -0.48885698456590   -0.42541414969962
H           1.73933568330160   -1.17922872509715   -0.06579941432340
H           1.97666368041669   -0.31865261360863   -1.32264760620029
N           0.76682801878737    1.35233902948827    0.73130598616657
H           0.71055633654032    2.17241691332697    0.10671626138247
H           1.54432467360551    0.72436970261154    0.40358721066433
H           0.82839598463669    1.55195596220744    1.73784241706311
H          -0.13792747923927    0.81679631998901    0.60094417635402
