    26
        -50.46724911  Gyration_radius:  2.50079048277 Dipole_moment: 3.223
 S          -0.22373565735681    0.39576105123898    1.66030111810608
O           1.04731841091352   -0.27645741815486    1.88076395250592
O          -1.28148412155665   -0.50482319419518    1.28200941156042
O          -0.08680381351843    1.52246059108954    0.74171151088186
O          -0.63926775431168    1.02888011382368    3.05117586600334
H           0.07552697581213    1.63784950608127    3.20331134487760
H           0.91163790966503   -1.15052704281319    0.36101774187597
O           0.97287480063437   -1.30028437635600   -0.59880010971292
H           1.41909291693765   -0.48391803319792   -0.93524237947795
O          -3.20097353961454   -1.72536174999486   -0.01864259123619
H          -2.65043462996732   -1.18363245854801    0.58490044618151
H          -3.23298395903281   -2.59752697963278    0.37891484917801
O           3.44345742610059    0.66728321091093    1.14048459370792
H           4.05531493665737   -0.06372676010790    1.23994525757827
H           2.58801574154882    0.34604906500213    1.49238418003821
O           1.87502535388800    1.15598571650904   -1.04616831881913
H           1.19458364062872    1.43982436615460   -0.40416319903469
H           2.68622397797127    1.13111162348690   -0.51107405306426
O          -1.12770092309696    1.59455697585546   -1.68648264588564
H          -0.31404906835466    1.87258246617563   -2.11840243031776
H          -0.92288228015988    1.63978186147919   -0.72573173209121
N          -1.32978129454321   -1.04685787923423   -1.82041019951058
H          -1.36772779309161    0.01031780057811   -1.86723825263954
H          -0.41344438889515   -1.26789838711193   -1.30904162525781
H          -2.12896621142838   -1.38082088815247   -1.22971767885420
H          -1.34883664626570   -1.46060920107826   -2.74580505626115
