    26
        -50.45015282  Gyration_radius:  2.45670829878 Dipole_moment: 2.683
 S          -0.59451288161563    1.90646548951424   -0.11510488750014
O          -1.53613149630300    1.12006386499614    0.64449776037565
O          -1.08658352383183    2.42170587623938   -1.34853199973644
O           0.65422630631580    1.02184777791199   -0.41182867938695
O          -0.00790097467358    3.00906682635322    0.76511923857712
H           0.55973155735704    2.54332492407214    1.47744365616640
H           0.45181265966180    0.61074452254483   -1.32525177762690
O          -0.10162484784979    0.03441469042949   -2.60997477698922
H          -0.56078646332943    0.82791596196436   -2.90569630481092
O           1.30116047153536    1.71335263160217    2.51602096970477
H           0.87239716148870    0.81224941458674    2.45384948908804
H           1.09722543174095    2.04329992442903    3.39433285468130
O          -0.12240435359397   -0.45216314829235    2.27896795061607
H          -0.79206883593218    0.04564930270048    1.77505050806242
H           0.11664518776658   -1.20407967712436    1.70713007328673
O           0.42326965747299   -2.50274795265382    0.50030066552468
H           0.83551511238865   -3.28514622539746    0.86972531467595
H           1.06847354693366   -2.12324147440250   -0.13769621116513
O           2.11120940505482   -1.30739690947352   -1.22175510532889
H           1.59992192600065   -1.10835930480541   -2.01451163750735
H           2.22188968721162   -0.46938069047698   -0.76065387147736
N          -1.78930869448126   -1.20100414646898   -1.06940310816877
H          -1.26265849810298   -1.88125863369044   -0.52880661317406
H          -0.80709269333571   -0.53899496645945   -2.15002619761916
H          -2.67107427098917   -1.62151009324177   -1.33195414492222
H          -1.98133057721138   -0.41481801505877   -0.45124316533649
