    26
        -50.46728011  Gyration_radius:  2.58680149089 Dipole_moment: 1.544
 S           0.09243897310729   -0.93770843563331   -1.89997244912775
O          -0.93745678963583   -0.41079566200135   -1.00561273982457
O           1.35488466329555   -1.07258006822366   -1.18267488927893
O           0.18268435579993   -0.23622177824709   -3.15236402227450
O          -0.37307472441353   -2.41609283914520   -2.25954659452156
H          -0.46919951954192   -2.37513515877044   -3.20543263629541
H           1.10724052651094    1.24269343301928   -2.52839092436130
O           1.69039852220109    1.52568458170737   -1.80659532682262
H           1.98471338720113    0.68186298859146   -1.43565920030972
O          -2.34249412037647    0.14279044834047    2.56412653276281
H          -3.25456980328787    0.30716755546701    2.32212622890257
H          -2.10983939114424   -0.73503423655333    2.17199991907536
O           0.89526361808728    3.15962181896459    0.15046516530933
H           1.28016124675945    2.63980639069255   -0.59248235568746
H           0.43428456579899    3.89676679653888   -0.25194000980507
O          -1.43507892998665   -1.94789179395874    1.18119483925832
H          -1.40145024770326   -1.55099020325423    0.29224485623907
H          -0.50977203350151   -2.02708226078658    1.45130191815805
O           1.32587258183671   -1.33732821901594    1.40092429333091
H           2.14925913520202   -1.73785631281282    1.68207538397740
H           1.36034994246806   -1.30420610824009    0.41088652800005
N          -0.20073831142734    0.92521810236330    1.15655656148774
H           0.17050493225180    1.87891755554791    0.96132769824899
H          -1.01570451621942    0.89656992106573    1.80681628252202
H          -0.51253422628660    0.49162071795880    0.24788557589094
H           0.53385618296686    0.30020276639263    1.52073935511054
