    26
        -50.47096519  Gyration_radius:  2.40554118943 Dipole_moment: 5.280
 S           0.96198227673762    0.50659588282857   -0.88340080486476
O           1.50428584737630    0.46146711205087   -2.33031647048868
O           0.65750148809682   -0.86957610088569   -0.48240400625318
O           1.98758946140908    1.08555200998199   -0.03422111079938
O          -0.25579927972432    1.32227951989463   -0.87602908007551
O          -2.26794600165801   -0.15389342721330   -1.70341801110373
H          -2.39519575329810   -0.71350664371341   -0.92899864880917
H          -1.63072992340807    0.53104559076590   -1.40650100896048
O           2.19499667890302   -0.77996015713186    1.76234883731873
H           1.98241850392976   -1.49799147584169    1.15541527074897
H           2.30424900722006   -0.01238559871357    1.14653763322785
O          -1.48396961424612   -1.45065423491670    0.77122027682713
H          -0.68427352207149   -1.22658582861198    0.20695934340792
H          -1.52354483992039   -2.40839109787620    0.79336360917407
O           0.06597564774601    2.37278391119699    1.47219987263360
H           1.01957579329486    2.47658504086408    1.36972246950202
H          -0.21747430602084    2.11484764198182    0.56158823850942
O          -0.44050607680113   -0.80880346805904   -3.50568794582847
H          -1.18548747346256   -0.68573876900208   -2.86493379869235
H          -0.69331418563177   -0.32754545776575   -4.29672276239328
H           0.82352624613866   -0.07226564023778   -2.82214875217943
N          -0.16202626255540    0.01992840826266    2.61087403225667
H          -0.15668240626019    1.02571545193169    2.23774044358485
H          -0.38699453169754   -0.00881652738439    3.59921709040786
H          -0.83641322688554   -0.54005672469886    2.04125920505727
H           0.81825647279802   -0.36062939770019    2.40633607779210
