    26
        -50.47272840  Gyration_radius:  2.40558194011 Dipole_moment: 1.449
 S          -0.06376290401739   -1.50983755396282   -0.90376208994608
O           0.75367790855766   -2.69216347289095   -0.83481700435818
O          -1.13193427813291   -1.47673228623827    0.08412877968797
O          -0.80250327065900   -1.56618490042145   -2.32631114872975
O           0.67699788425115   -0.26349677756247   -0.93986506123282
H          -0.31040186619438    0.73962053027029   -1.79292857133978
H          -0.98832710308105   -2.49477018341502   -2.41645443272019
O          -0.94751608066118    1.38312035787719   -2.17579327455478
H          -1.31358571881459    0.94554886272474   -2.94606953274386
O          -2.28977283630924    0.92861012374055    0.14034938985661
H          -2.00281130525826    1.25250915751264   -0.73555399493699
H          -2.03025321717181   -0.01663048844737    0.15114725486291
O           1.32558270670595    2.28948663130942   -0.36329222802263
H           0.76517519703270    2.61029983575557   -1.07765799041595
H           1.44087367843630    1.34217823004587   -0.55006965707270
O           0.30538923511572   -0.80813504179363    2.24211179079341
H           1.19149095218984   -1.09463531555869    1.93653899486261
H          -0.31118978964316   -1.17541286799786    1.58044802318232
O           2.45194982794900   -1.85422316918365    1.01993339652460
H           1.91799447884364   -2.15388360128618    0.25631659556167
H           2.85689114987975   -2.64320603287811    1.38672006998757
N          -0.29574521978688    1.68066251820190    1.67653403063078
H           0.40540157744230    2.04864817018397    0.98545554594444
H          -1.19822439361109    1.48863267556546    1.13812975131174
H           0.03528339965361    0.72173436979836    2.01427901007393
H          -0.44068002278416    2.31826023867446    2.45048234262850
