    26
        -50.46528553  Gyration_radius:  2.56716394332 Dipole_moment: 3.423
 S          -1.74097864995606   -0.39019886974370    0.14521114466681
O          -1.46914506158958    1.03447411720126   -0.07116221213174
O          -1.53222551712556   -0.78888727658526    1.51937020278564
O          -0.94308407169124   -1.19731894923589   -0.77700979986178
O          -3.24571230644827   -0.63327180446317   -0.20002952380251
H          -3.33547457325929   -0.24472738122476   -1.08988412686430
H           0.23881606312383   -0.46840816527196   -1.67702630414077
O           1.00849837408258   -0.02948597060849   -2.10853851029573
H           0.66393417026895    0.35674597361890   -2.91502534329529
O           1.13110677527752    1.44494979134769    0.14431483719600
H           0.14984452240388    1.49169063250091    0.14083610263864
H           1.34205037429453    1.06899221837527   -0.73384761314640
O          -2.84985572209983    1.00133119885525   -2.28183941404467
H          -3.45215373167456    1.74631724916830   -2.33866933879508
H          -2.22482498564699    1.20461412672536   -1.55331362885229
O           2.49144171929983    1.40317450753516    2.68398938105084
H           2.72338318736048    2.17072982052241    3.20776460350878
H           2.16143115904006    1.73594030843468    1.83872034963867
O           1.32056379268268   -2.56221606275278   -0.34177219411194
H           0.39286657885772   -2.31320345534674   -0.52732356326315
H           1.82512317599042   -2.17967375839412   -1.06589537340453
N           1.08689458446433   -0.78778686457735    1.62610763939993
H           1.37174408513031   -1.59794246170856    1.02267039895054
H           0.04542069253278   -0.85678416201269    1.78128478634800
H           1.61061997384640   -0.71164411088050    2.49515957886793
H           1.22971537082186    0.10258933855261    1.07590790097950
