    26
        -50.46377087  Gyration_radius:  2.5832817698 Dipole_moment: 2.899
 S          -0.00450546220534   -1.39550619979347   -1.02963214240583
O          -1.44536324404604   -1.35296156874237   -0.86291142749927
O           0.69431745567125   -1.67073086884304    0.22595823343192
O           0.49158661065542   -0.15621206512035   -1.62885867679195
O           0.30843440465184   -2.56219073658660   -2.01590867067502
H           1.27520005632180   -2.68857107139756   -1.92375227680345
H          -0.39756760715799    1.22519517709884   -1.83650128137590
O          -0.97232157613928    2.02776950165325   -1.81372987333582
H          -1.45892296387857    2.02163498116640   -2.63894016895925
O          -1.90558672192052    0.96188744724088    3.24558171774765
H          -2.04280792642759    0.76179146052271    4.17210655606049
H          -0.97355462081964    0.78153241591748    3.06068808975848
O           1.82672129274925    1.68480159432538   -0.20990888162260
H           1.45274374506658    2.47814821179262   -0.59983058301854
H           1.52275891542605    0.94973298303979   -0.77921666591353
O           2.75992713272888   -2.65863248921443   -1.04342598746314
H           2.19380553359513   -2.22038247757228   -0.37497358352495
H           3.05857829613663   -3.48199190849422   -0.65086657110077
O           0.51368893744743    0.47302510018215    1.76922706224623
H           0.62955914233170   -0.41667183308519    1.36981255026738
H           1.14158385364473    1.03421281224436    1.26473320213396
N          -1.76662380484261    0.86058176271796    0.46434043748099
H          -1.67449013487915    1.56651144613297   -0.29225586998229
H          -1.83155164319369   -0.08336556531384   -0.01211017292194
H          -0.86546290655142    0.82290965788201    1.02630822136834
H          -2.53014677435731    1.03748222225711    1.11406676287357
