    26
        -50.47231564  Gyration_radius:  2.41623517747 Dipole_moment: 3.650
 S          -0.66568638028033   -0.93259221328086   -0.90925189719014
O          -1.13857822375176   -0.21454694933526   -2.06351372268731
O          -1.52108802899813   -0.69365651048399    0.27061456777116
O           0.71836705030099   -0.57094272359969   -0.56983618686004
O          -0.69353118667988   -2.44204110795690   -1.21539379523239
H          -0.18394956855943   -2.87051112598287   -0.47185947346669
H           1.16983760621272    0.32249219663610    0.70081129177318
O           1.33252781733785    0.98695571377994    1.41897757511710
H           2.12490808540552    1.45585610610971    1.14930249522793
O           1.78106989625773    1.51120051538060   -1.81275468115819
H           2.09771584093092    1.26318774490419   -2.68248464123842
H           1.43596458663079    0.68384665913171   -1.40850866854341
O          -0.76153397529991    2.38634257098944   -1.80211241192154
H           0.21331437596681    2.33686437536584   -1.88940081322620
H          -1.05780949174525    1.49224355069517   -2.08382353585679
O          -0.09035989627759   -1.41523865863056    2.37963241426156
H          -0.72292770972904   -1.15028694732356    1.67791975789271
H           0.56668232317258   -0.71248225268836    2.41945972275865
O           0.50227559335657   -3.47993649969439    0.83707232970487
H          -0.01694643257675   -4.21913919485762    1.16109923845832
H           0.40166237486482   -2.75729390368068    1.50575259965369
N          -1.11311032681414    1.83373205880468    0.70329393511895
H          -1.00966437707798    2.22136869598581   -0.30337268954916
H          -1.75249240086596    2.38033199139115    1.26937175171689
H          -1.44947022929496    0.83161905870873    0.58013729594852
H          -0.16717730245364    1.75262687965763    1.13886752151740
