    26
        -50.47063282  Gyration_radius:  2.42468980231 Dipole_moment: 5.298
 S          -0.56374950542627   -0.62461869391527   -1.85968932648917
O           0.70650293494925   -1.23100020140579   -1.56485439803987
O          -0.49352173962368    0.79165037623082   -2.18049013772953
O          -1.55354664194098   -0.87452329577022   -0.80500323442509
O          -1.12770588727422   -1.32141458975321   -3.16474077603892
H          -1.62562441329808   -0.61114363748521   -3.55481218973897
H          -1.17916833866040   -1.41163487659201    0.67100727778898
O          -0.98815743450488   -1.61983779640937    1.62214203605474
H          -1.65896764950646   -2.24805371438379    1.89307407299504
O          -1.93734657597604    1.61616221982881   -0.07055155383668
H          -2.01071051682888    0.66826892575494   -0.31651057299091
H          -1.44490333617422    1.98217124406106   -0.81636931526526
O           2.00377535855194    1.24971348707557   -1.39272583761979
H           2.37589493679627    0.39637353791865   -1.63446290536196
H           1.08638138105992    1.20988052145670   -1.72473084556502
O           2.04042543854466    0.94337291483358    1.25212594082204
H           2.12840210915255   -0.04039882893246    1.21322036072432
H           2.09637800537909    1.22422842928436    0.30861965809082
O           1.73817966258678   -1.66356074087258    0.88521878669259
H           0.91955299622263   -1.88842574083623    1.34548417032681
H           1.48486722884062   -1.61473456161218   -0.05583872737334
N          -0.41031846117086    1.02765953858428    2.01381648522623
H           0.64813287629891    1.07497278290180    1.71222457011865
H          -0.65441274436134    0.02481645166390    2.10687379585941
H          -0.56682914435022    1.52579867389387    2.88254565533440
H          -1.01353055928940    1.41427758447611    1.23442702043746
