    26
        -50.46558917  Gyration_radius:  2.41153248055 Dipole_moment: 6.499
 S           1.26685331177070   -0.47284581713089    0.99954397889566
O           1.68249739986347    0.68295264279982    0.20374999228778
O           1.82593019522785   -1.71122785406363    0.46441490435684
O          -0.19034147671578   -0.54980556586887    1.07156931409034
O           1.80245513922936   -0.29829963646430    2.43862615092726
H           1.21261584160624    0.40605443153802    2.83069781230412
H          -1.20643232977449   -1.24531311110962    0.17168035299365
O          -1.84830428662265   -1.65124244414438   -0.49100070795821
H          -2.48473311918128   -2.13459302334640    0.03770065500370
O          -1.90863608197175    0.99690681762455   -1.30108423863484
H          -2.00664330664517    0.07258803559398   -1.00781879448251
H          -2.74679836802698    1.27108572538056   -1.67569199652945
O           0.28617715052349    1.65577701105102    3.22215235035970
H          -0.10170086267914    1.91726658091514    2.34942651486513
H           0.84293971932707    2.39089149523097    3.48924972280763
O           0.67571611739001    0.57392970992328   -2.22690701327715
H           1.18664240560133    0.73513349115520   -1.39968342547072
H          -0.21532026287564    0.91251169755959   -2.03495092903122
O          -0.30031662149226    2.35603816661129    0.73745168902523
H           0.50129749142182    1.85221983758772    0.48844402243117
H          -1.01043128337999    1.95023122844475    0.22532257209886
N           0.54414102522743   -1.97523642674786   -1.74778097316876
H           0.61312810938545   -0.96213940196227   -2.11324331460604
H          -0.43551445627696   -2.13863075693449   -1.46409839777139
H           0.87271373860801   -2.65870194043133   -2.42042140885367
H           1.14206481045991   -1.97555091320467   -0.84734881266166
