    26
        -50.47166715  Gyration_radius:  2.38847801353 Dipole_moment: 3.170
 S          -0.77621515160654   -0.50707492792973    1.07699725850127
O          -2.00136624295762   -0.88919137537597    0.39202587814157
O          -0.52144462540939    0.92739293616525    0.91869563703865
O           0.36225779904960   -1.29704848317129    0.61998224327958
O          -0.96728844678654   -0.78803685012834    2.59098614793612
H          -0.18067561844212   -0.34818011098818    3.00043157844897
H          -0.05085732568215   -1.89824650260655   -0.91362284977274
O          -0.46949515004377   -2.08198757776862   -1.77816567721890
H          -1.37848442430217   -2.30223658964330   -1.56141110866376
O           1.42501865284347    1.25373741078750   -0.89717357790140
H           2.19313194388907    0.81320311791257   -0.51599002467834
H           0.74156980342303    1.20400027365237   -0.20214575610062
O          -0.21379121735007    0.35989821807336   -2.80199945078803
H           0.54272049381657    0.70991019481466   -2.27776475727662
H          -0.23410973104444   -0.60743221056131   -2.61085157477306
O           1.14880120212096    0.67537198763369    3.04110795182059
H           1.91606972725751    0.33522652428097    2.54557253518442
H           0.68803085579190    1.25077861214409    2.41480175456616
O           2.76928993818397   -0.39175722757955    1.07814977307896
H           3.39324194881850   -1.11518929799966    1.15259305336436
H           1.89770211678535   -0.80032433306824    0.86527414912754
N          -2.09406860264122    1.12385339842414   -1.24372590908141
H          -2.24632301075546    0.25564759349684   -0.64813346252537
H          -1.33989444440954    0.84657696677831   -2.01580407860660
H          -2.95520071985769    1.49219952790680   -1.63336982220850
H          -1.64861977065662    1.77890872477336   -0.59645993088031
