    26
        -50.46433740  Gyration_radius:  2.5189837112 Dipole_moment: 3.802
 S          -0.44457312951376   -2.09511651140055    0.51698160246839
O          -1.67498665129857   -1.52311069336765    1.05929216939994
O           0.66515760885613   -1.16512819578898    0.62798045692581
O          -0.62817749604028   -2.60745104859271   -0.82365565659622
O          -0.07423161960648   -3.32902269767274    1.43490261749457
H          -0.73332942139044   -3.96405580501134    1.17499775429478
H          -0.81310946515173   -1.45659491564157   -2.05041911282802
O          -0.91090181800601   -0.58447284699599   -2.49433629548101
H          -0.03855253642220   -0.15791533573207   -2.39961211770652
O           0.96198764628467    1.09883251808027    2.02433670534999
H           1.87159167985765    1.26608374421896    1.70442804036624
H           0.77710530250342    0.18417678206819    1.73739336241931
O           3.25216457188731    1.15129267810596    0.53670066131407
H           2.72627842356042    1.03481555501210   -0.27598090727104
H           3.68937096135946    0.31186204811898    0.68990261564780
O          -0.41198193958686    2.38025993102797    0.26280559511130
H          -0.46033592022793    3.30769283190642    0.49543441125118
H           0.08492264802620    1.92598543931306    1.01750976786016
O           1.20698271258342    0.62204861311980   -1.26137947684422
H           0.70655713567447    1.37849291903917   -0.92028752941135
H           1.06186934958868   -0.10116091263964   -0.61271408913660
N          -2.18728206428668    0.48539014283951   -0.48810620550691
H          -1.76730917508782    0.11835129925808   -1.41017223714788
H          -3.16772670230659    0.72235587940308   -0.59202305787068
H          -2.06058940395890   -0.31040391628845    0.21537502483615
H          -1.63090068730674    1.30679250765494   -0.16935409891764
