    26
        -50.46728007  Gyration_radius:  2.47636752818 Dipole_moment: 2.714
 S          -0.66219227277613   -1.12265559414272    0.91138774729071
O          -0.96844600507980    0.25682366059813    1.28183075474993
O           0.53131994518211   -1.18158463528407    0.08041613205954
O          -1.80111075882864   -1.83008355549138    0.39073765261284
O          -0.28120561736144   -1.86782560236855    2.27043821322510
H          -1.13063959771474   -2.19233615144926    2.55074918251014
H          -1.58062258300988   -1.85440859440356   -1.35604674412717
O          -1.02029280559373   -1.62842829776279   -2.12066150067271
H          -0.14256395523345   -1.56299520934814   -1.72250473063086
O          -1.77412348964234    0.75483711425019   -2.94774796272386
H          -1.57962852525735   -0.18588971855248   -2.69717383665076
H          -1.39306435740766    0.87958378896168   -3.81850071343361
O           1.76607943027858    1.19782939127808   -0.67527986650147
H           1.87705398768801    1.46011796246326    0.27206796584642
H           1.58661330579645    0.24590754352747   -0.62292850108513
O           2.39809959001790   -1.09078850923666    2.04619792629560
H           1.82248601444959   -1.24011906158085    1.27636632110860
H           2.03282084720657   -1.63498881281558    2.74642492997634
O           1.42053458536380    1.44975774511751    1.93368969669886
H           0.51494833673976    1.10165244856653    1.87107419520504
H           1.96701644252807    0.68140000026701    2.18072536735856
N          -0.73509384833396    1.89905644863542   -0.77923708683466
H          -1.00583973985127    1.30129508807922    0.04186539461823
H           0.32909786986129    1.74794200280259   -0.86463752421310
H          -1.21003492314098    1.54448888944945   -1.64940962146391
H          -0.96121187593739    2.87141164842189   -0.59984337123628
