    26
        -50.46361064  Gyration_radius:  2.45718491652 Dipole_moment: 5.329
 S          -0.44411254189751   -2.10850525265031   -0.32174305303565
O          -0.50432956836012   -2.92573579259650    0.86935094773612
O          -0.63922080216307   -2.79065061679575   -1.56512723090317
O           1.11781093246752   -1.60115083742814   -0.36645938116693
O          -1.17849730023702   -0.85767915621660   -0.18168225676495
H          -0.85796686578882   -0.50845135785019   -1.77596314940095
H           1.57782680595588   -2.43065892190332   -0.45109611702597
O          -0.50501952996900   -0.26930613447498   -2.65628674006595
H          -0.30534488547189   -1.12366879046267   -3.04867031239100
O          -1.44030349559061    1.81594561995734    0.06191465838473
H          -1.60039070992371    0.86541993382145   -0.07927512459328
H          -0.83090205215935    2.06889197039236   -0.65306536050276
O           0.58486408754074    1.99550411735849   -1.84735120488804
H           0.69865117962714    2.59546415015474   -2.58545558361005
H           0.25128663388153    1.14833945522464   -2.22829151291218
O           2.13284413694012    0.89836100597494    0.14155210659156
H           1.73333445954438    1.40866288990558   -0.58580305335072
H           1.92989664846217   -0.02788493990043   -0.06712068310281
O          -0.70430303496514   -1.15478043926144    2.73876391726438
H          -0.56261378552458   -1.85931195867246    2.05268958909171
H          -1.65838090792486   -1.09368447647373    2.82144852450810
N           0.24941116619114    1.20557000429852    1.97434438559561
H           1.11594060542161    1.09794917361311    1.37380279569057
H          -0.50013538153206    1.58444598316770    1.31779678587418
H          -0.07574010972471    0.24941105674539    2.29666531017248
H           0.41539430521303    1.81750331407556    2.76506177280509
