    26
        -50.47312132  Gyration_radius:  2.44423964736 Dipole_moment: 1.588
 S          -0.83369198913657   -0.64269782367383   -1.75644096604253
O          -0.61382463090007    0.80307883549346   -1.78735021411242
O          -1.73493496586226   -1.02956120406949   -0.69601429069098
O           0.41964765028811   -1.37194107316007   -1.76518640164442
O          -1.55277373666662   -1.00739835003821   -3.11903711316614
H          -0.81506386286528   -0.97789717870715   -3.71795311881375
H           1.25181646759924   -1.60023839620780   -0.41916309899905
O           1.72820343938673   -1.75904406533551    0.43742367465630
H           2.44284954044373   -2.36280620370161    0.22990174065774
O          -2.15222221506739    1.51730393126991    0.20410172040096
H          -1.58016361840910    1.41820407764816   -0.58982970400875
H          -2.71102051143643    0.73315409257161    0.15960208118695
O           1.72800581269881    1.87403667314136   -1.22306469575727
H           1.57619702348410    2.80756257438736   -1.37863164181168
H           0.90186130349113    1.41780612976673   -1.49478133637138
O          -0.74215788692303   -1.81872362357036    1.63962065813727
H          -1.21646535538616   -1.68435550828546    0.79204023875706
H           0.17033423551118   -2.02827028067341    1.37870749194885
O           1.99049271080111    0.84888899610377    1.23316664208659
H           2.07117048130477   -0.09943798967865    1.02180297287122
H           2.00312314782385    1.29748740063924    0.35982424394301
N          -0.47231032495836    0.75277049775149    2.12268183349580
H           0.54006163261673    0.90838889797312    1.81155320796606
H          -1.13459415817092    1.18180006084316    1.41868410602194
H          -0.63173830744805   -0.30140361113183    2.08625152985274
H          -0.63280189221325    1.12329316065875    3.05209043945135
