    26
        -50.45356478  Gyration_radius:  2.46825254068 Dipole_moment: 2.851
 S          -1.56044738268896   -0.37317406392331    0.74977443031681
O          -1.00780781709460    0.91811799904659    0.38693375980118
O          -1.33393777064195   -0.72371751871104    2.11484888405756
O          -0.98841666241794   -1.43822328862062   -0.20021012904819
O          -3.04704153890009   -0.40871490014146    0.41691012066792
H          -3.10521866933530   -0.38629514610470   -0.59956729511426
H           0.02456734762158   -1.56522452567178   -0.09751668429331
O           1.57082555904361    1.65900140998165    0.64845318243486
H           0.59914505533949    1.60963677118260    0.60500958019667
O          -0.70184534196733    0.93956285846146   -2.26148586338500
H          -0.79425161976483    1.11068378346739   -1.30588727154534
H           0.19938532930847    0.60585695576586   -2.36549458110206
O          -3.05281303972934   -0.23429394343974   -2.12316315985889
H          -3.65203662336153    0.45738677578984   -2.41437437366169
H          -2.13866465812059    0.09312951369979   -2.32012193719631
O           1.52075947626663   -1.56277957574992    0.06574873724237
H           1.68611314829208   -1.12209648121434    0.91795228378677
H           1.80737629048314   -0.94903329629010   -0.64145637021418
O           2.03940525480068    0.45276741875215   -1.65145256822430
H           1.92041336102221    1.04253794243394   -0.86348231951854
H           2.83994891017754    0.73783173691045   -2.09342767788050
N           1.46909982340448   -0.41981840754404    2.65701215067916
H           1.81222728281679    1.06422119191062    1.37236498529997
H           0.45113438441346   -0.50158688900281    2.58403478793731
H           1.79500498477895   -1.29445037069760    3.05646876572702
H           1.64707491627206    0.28867405968813    3.36212855288263
