    26
        -50.47376045  Gyration_radius:  2.38790675676 Dipole_moment: 3.935
 S          -1.34527008021668   -1.22990387507807   -0.24151091136337
O          -2.55066623127354   -1.24369500550473   -1.02298112256169
O          -1.43394598423670   -0.44342545639830    0.97791016047791
O          -0.14065297069175   -0.91017936462191   -0.99680559024730
O          -1.11291039296060   -2.74177879180270    0.23589965614874
H          -2.00632740160693   -3.06321079597339    0.29279162479435
H           1.28689957363558    0.01523145220213   -1.34225395626725
O           2.14228769793404    0.47645552240136   -1.25608471949251
H           2.74078493230529   -0.18964954936780   -0.90567492702557
O          -1.80622720943446    1.00437009153142   -2.25860563197292
H          -0.98749543280844    0.68526489360744   -2.64548853297833
H          -2.25278534175773    0.20860000676124   -1.91368021432791
O          -1.37633165148103    2.09997138742804    0.15030954840325
H          -1.57843658538219    1.24874064997693    0.58364639273327
H          -1.57567210565453    1.93627663475055   -0.79554147214566
O           0.84748365574764   -0.08761464606919    2.30378581128437
H          -0.07471722967426   -0.23263231090412    2.00536424746713
H           1.35218075372471   -0.79468171349056    1.85594501112688
O           1.69983648482597   -1.98364661289893    0.56624252338681
H           1.00418350572667   -1.66823954524210   -0.04809244471188
H           1.43110437656033   -2.86956119921138    0.81499795721203
N           1.17040233010497    1.98695448996804    0.73109981232154
H           1.12799302956307    1.23334335561009    1.48877832511668
H           1.62613873326587    2.83149323563288    1.05589912968093
H           1.66228544637919    1.56177575397059   -0.09098624717830
H           0.14985808740747    2.16974141269155    0.45503557012646
