    26
        -50.45531307  Gyration_radius:  2.47508120733 Dipole_moment: 4.928
 S          -1.33771767330582    1.57912181160035    0.09652938550454
O          -1.59370232745828    1.64316770433142    1.52987385877306
O          -2.35116861829982    2.11785703528448   -0.74945687527142
O          -1.27743725519652   -0.00764024849930   -0.20888458735942
O           0.03021048299645    1.98513447543752   -0.23090196116798
H           0.76604195457008    0.83870823686675   -1.07883173270827
H          -2.15493211463851   -0.34879265776873   -0.06316024248863
O           1.28362490580138    0.14513343542526   -1.56395942571281
H           1.84979157279972    0.61058102334764   -2.18168071950050
O          -1.22299735364333   -2.83915652380743   -0.61603370814086
H          -1.06898359523373   -3.73805813344914   -0.91129261227910
H          -1.14766726245634   -2.27255577330189   -1.41701299104155
O          -0.81485350824703   -1.20212004040394   -2.72859703835992
H          -0.01646167459222   -0.77558641659526   -2.36059927236153
H          -1.49247704216293   -0.52261907830053   -2.71951919715112
O           2.06349261494047    2.16346345805303    1.44756477011089
H           2.84533321292827    2.03807029162122    0.90739318693875
H           1.31385616680294    2.28866901510194    0.82272724757985
O           0.92900130127608   -1.66934893417237    0.54949666529443
H           0.10844749864279   -2.11817987566422    0.25099640382463
H           1.19937659634801   -1.13263818904329   -0.21117488385276
N           0.41802250404809    0.22731280672806    2.30919572371561
H          -0.46552910114280    0.77918225627509    2.05010703788543
H           1.20667906796504    0.89921237314814    2.18322954262625
H           0.36904419208889   -0.10351446939162    3.26697501756699
H           0.56100546515069   -0.58540357282257    1.62701640757370
