    26
        -50.47033161  Gyration_radius:  2.48334194259 Dipole_moment: 2.311
 S          -1.55569668822688    0.05921814624988   -1.36582773212920
O          -2.34693067679087    1.03044058980908   -0.64606958154544
O          -1.67092813765653   -1.28153394150930   -0.80460760469284
O          -0.16610667535167    0.45999081884897   -1.52879282491734
O          -2.14634261705589   -0.01466341785732   -2.83369354396660
H          -3.08434281240160   -0.05510247056763   -2.67820233970307
H           0.69711357075891   -1.02419794280296   -1.54415535635089
O           0.99831672082813   -1.94001482282004   -1.39182447010410
H           0.18454262950997   -2.45188120855773   -1.38284936725392
O           0.77721070196175    2.33996178032682    0.01649464225535
H           0.40682736228667    1.66469178474283   -0.60271502601286
H           0.75274987352383    3.17643994201474   -0.45053774684760
O          -1.22031034491514    1.52324329924901    1.70858771515870
H          -1.80190871023364    1.45879040545006    0.92199681671999
H          -0.42802161598454    1.98020392115227    1.38042748459947
O           2.94424429705894    0.72241166013754    0.51628473215357
H           3.22368645927581    0.54618486479996   -0.38462183163242
H           2.22688211960884    1.37757528485060    0.45450890967237
O           1.78215127670278   -1.62370125734824    1.15723694089246
H           1.64440550325970   -1.89289938912388    0.22180998538192
H           2.30057995897695   -0.79382656584582    1.09963754700945
N          -0.70956047800114   -1.06209609287354    1.64997462500491
H          -1.15577867001151   -1.25496370106798    0.71761236008021
H          -0.86232947021400   -0.02830604957340    1.84052985691857
H          -1.13399762262117   -1.62969345371573    2.37535425320512
H           0.34354405569649   -1.28627217393351    1.55344157611979
