    26
        -50.46869418  Gyration_radius:  2.51888998691 Dipole_moment: 5.468
 S           0.04433262469752   -0.09491289166749   -1.06553364286264
O          -0.09335634979313    0.08612522323967   -2.59649087128692
O           0.12825677992884   -1.51092607441145   -0.74906401714055
O           1.26910237814946    0.61822449903283   -0.70791194633400
O          -1.11903751838599    0.51958973644295   -0.41675726911093
O          -2.47055971956709   -1.92594448328886   -0.80943325963094
H          -2.71603016887377   -1.06735405083336   -0.45010741175955
H          -1.49320521829992   -1.95733396764746   -0.71860090150874
O           3.07909074558246    0.10913729067306    1.10617356293237
H           2.44439565275714    0.15188267973485    0.35032019873713
H           3.88541695729027    0.51842908895306    0.78788629992949
O          -0.60162974236880   -0.73313909492310    1.80435875789449
H          -0.95203064678582   -0.21746903220163    1.03890876535763
H          -0.16449126010079   -1.47930068616149    1.37600858549941
O           0.28108665792053    2.65483350589354    0.58732778687085
H           0.76998648099235    2.05954359237798   -0.02748858960763
H          -0.63766695908801    2.42236617177875    0.40280193149502
O          -2.09024765951845   -1.39919885883436   -3.35863362760626
H          -2.41233646910236   -1.66626738010281   -2.46054000247100
H          -0.88273991812290   -0.42618961647541   -2.92608492062060
H          -1.72390620010274   -2.19060018910737   -3.75874732212449
N           1.10027564134103    1.12004382014480    2.55942679482139
H           0.76440849956500    1.88931259638702    1.90052938803244
H           2.01576069157255    0.77363735689190    2.17810505894486
H           1.16699621860960    1.42420046408458    3.52372434590219
H           0.40812849933442    0.32131030017198    2.42982226529345
