    26
        -50.46916488  Gyration_radius:  2.49962713307 Dipole_moment: 4.997
 S           0.28562660134058   -1.39030198156981    0.32500370656333
O          -0.25884076259864   -2.26481268538089   -0.69542211425339
O          -0.68733012068825   -1.02073126467518    1.34210280305285
O           0.87453012258213   -0.18736835577062   -0.28025506803615
O           1.43096860762529   -2.13942262847547    1.07746510961542
H           1.90210936073675   -2.66074455906544    0.39261378524597
H          -0.33262970850662   -0.01205903091749   -1.45694356186156
O          -1.17689808494179    0.10653954733753   -1.94057585738267
H          -1.44286177869270   -0.79216692348478   -2.15323021064615
O          -0.46434561264908    2.93985369488684    1.03353405103070
H           0.14279487840600    2.42689679441378    1.61171531120307
H           0.02406534884036    3.01720487090065    0.18739605440003
O           1.06158037263447    1.02116491203165    2.12865330644555
H           1.20792624302583    0.61677246108393    1.25649653584918
H           0.56456391363676    0.35760735946297    2.61535947144722
O           1.99747032144630   -3.53266593355549   -1.08894009627696
H           1.88197307844762   -4.48332886953765   -1.02348570302088
H           1.10292885692055   -3.15064099265320   -1.20982208872379
O           0.78386057335648    2.39967702545274   -1.29088764854081
H           0.23446902164666    2.20550884282267   -2.05410638563740
H           1.07651416591484    1.53932554363754   -0.95428793333138
N          -2.07835309101022    1.00889422510602    0.43645069352034
H          -3.05197340903886    1.10375634807681    0.70245358817925
H          -1.96598794160084    0.81605823313414   -0.58222144346392
H          -1.48966516152963    1.89074644917489    0.70234156746121
H          -1.62249582531899    0.18423693753501    0.91859212715511
