    26
        -50.47003582  Gyration_radius:  2.39730784679 Dipole_moment: 7.086
 S           0.93260670301006   -0.95512618709204   -0.68477405415332
O           2.25859263299636   -0.53507024190976   -0.25933121702561
O           0.20631502771032    0.17146577165238   -1.27990957714860
O           0.15191725865162   -1.49097707743949    0.43472034119889
O           1.09546761583392   -2.05844833756685   -1.74331176222913
H           0.20189332626316   -2.51578463153686   -1.75276042618556
H           0.16078662817062   -0.67605570555955    1.80722962939252
O           0.17569631405648   -0.07734544362971    2.60246930082394
H           0.32228409685685   -0.64882038756160    3.35756959357684
O           0.24552087697630    2.76112400194590   -0.42216318976588
H           0.34544558406729    2.05431299627691   -1.08286230795024
H          -0.62212835738257    2.56965211405245   -0.02263316626235
O          -1.61654076561173    1.03968593953380    0.58180665009046
H          -1.41635045819798    0.71901522494571    1.46631014036715
H          -1.02829492434867    0.54586691068676   -0.01593397271029
O          -2.26478817884231   -0.50336375641583   -2.09258720530923
H          -2.77890466905158   -0.00534980389869   -1.45091242660635
H          -1.34863336630436   -0.18042870290980   -2.00159980649468
O          -1.29088009591250   -2.90111832781886   -1.35329259893284
H          -1.10338244439214   -2.63026585027581   -0.44219055789509
H          -1.83083644340049   -2.17948784280956   -1.74070268029496
N           1.85992943004574    1.52421002176558    1.24200799429699
H           1.26069839353335    1.08640155007998    1.97341082299291
H           2.16087180733592    0.71133127462540    0.60752174975335
H           1.26317421094885    2.16968091281742    0.63235451458887
H           2.65953981692854    2.00489557802461    1.63956420183341
