    26
        -50.46786194  Gyration_radius:  2.45628237901 Dipole_moment: 4.159
 S          -0.86921704011789   -0.11724797130181    1.69313132444929
O          -1.43639938893339    1.03432215656244    1.03968136253076
O           0.57806920879481    0.04530435768126    1.87764172051403
O          -1.18373152306614   -1.38364328474314    1.06120822313126
O          -1.49643139285058   -0.20762474090756    3.14427919508026
H          -1.52331295276793   -1.14996800280177    3.27146148379403
H          -0.90154937115822   -1.60327147504192   -0.52342241320767
O          -0.75507654792465   -1.67832899297183   -1.49932756232688
H          -1.00470421503364   -2.57331258961700   -1.73433876060746
O          -2.23665596404857    0.68046498557882   -1.53717206978185
H          -2.19070098038456    0.69505544523327   -0.56546893009310
H          -1.78530892493639   -0.13545121418565   -1.79713182591544
O          -0.73450037608218    2.81303220985568   -1.05735747984312
H          -1.29249931106034    2.13533187133680   -1.50650785478641
H          -1.15134229612826    2.89854399815069   -0.19248409494353
O           2.11378985994160   -1.89705000017741    0.90345320968538
H           1.48369071528024   -1.26548882018979    1.30990163913043
H           2.85949299552214   -1.95663716060874    1.50201262696044
O           1.81075050972603   -0.82315620898402   -1.56052190332684
H           0.90668785727628   -1.14266567356632   -1.74735848940618
H           2.08692571519888   -1.34169219772206   -0.77952907163446
N           1.35737684836466    1.41127005841694   -0.26268667493854
H           2.18110122418702    1.99012689973500   -0.13676071209289
H           1.57632208680630    0.58259124625334   -0.90699730744690
H           1.05675126740542    0.99420969928601    0.65235628039990
H           0.55047202613815    1.99528538440476   -0.64806194544120
