    26
        -50.46680137  Gyration_radius:  2.6066611809 Dipole_moment: 4.783
 S           1.23913706590800    0.03406588870675   -1.04535483047441
O           1.65325183854648   -1.13554522998390   -0.24259802266033
O           0.81251475647706    1.12296635410650   -0.18960765629463
O           0.21850305287732   -0.35149239946351   -2.00098500027128
O           2.49860670300304    0.52340639567679   -1.82119744988252
H           2.86365671531033   -0.29356232781675   -2.21595170582901
H          -1.15952022714740   -0.74385084248650   -1.35280417649464
O          -1.98659254166918   -0.97392344122995   -0.84217291151829
H          -2.49913131928043   -1.54549499489919   -1.41596139267721
O          -1.77094060422085    1.85317201384461   -0.53623441529644
H          -0.80400638001585    1.72302861515193   -0.52407910363499
H          -2.13663271163503    0.98648159011285   -0.75346953147014
O           3.24759332867007   -1.99499489361265   -2.14879491082460
H           4.11795107399515   -2.18722006466993   -1.79225380355331
H           2.63782415780165   -1.94580509196279   -1.38545944594691
O           0.03192931385626    0.97929559732412    2.39310814749992
H           0.48654397684903    1.23641935534911    1.56886910995028
H          -0.81047103262802    1.49510674941732    2.39970554122742
O          -2.24148788183785    2.30402357757017    2.02918796955148
H          -2.23953326812992    3.25038212944681    2.17798231783529
H          -2.17678947677666    2.18211132676258    1.04874561182297
N          -0.41676586821797   -1.33302354815590    1.34665015909703
H          -1.20361718175018   -1.26088703573804    0.67252256619931
H           0.46911565579109   -1.38050455235615    0.76671429263341
H          -0.31710110956662   -0.40359156398605    1.91119818151209
H          -0.51403804679387   -2.14056361730165    1.95224043996612
