    26
        -50.47096519  Gyration_radius:  2.4055332694 Dipole_moment: 5.278
 S           0.42396944219862   -0.86363831674489   -1.01803830079877
O           0.83776687602358   -0.96646636620553   -2.50390501315273
O           0.90318679174207   -2.05032476550151   -0.33230451169086
O           1.03893009298922    0.34864766655900   -0.47074019391690
O          -1.03733413738790   -0.76836579779198   -0.95527259076615
O          -1.35999007836172   -2.09709616852390    1.24735402913309
H          -1.45181554534733   -1.60336819898666    0.39658021824134
H          -0.67359637259693   -2.74192759945053    1.03838308990135
O          -0.26041227453150    1.93558987556466    1.04193493572878
H           0.29594212989877    2.70882106023205    1.15086410532468
H           0.21761264262539    1.35004148403763    0.38103243937215
O           2.26221666355849   -0.94644429472648    1.58749688586212
H           1.86052345721595   -1.53486830450360    0.89999455394594
H           2.51636634240102   -0.17415845221388    1.06966028726623
O          -1.74612975558065    1.71642359825757   -1.44094619609239
H          -1.65405808895714    0.75405679491937   -1.27135395792959
H          -1.48095492670140    2.13136122668907   -0.61236912668003
O           0.04687014739129    1.36219473117045   -3.35834241295395
H           0.61324904823620   -0.07087269422169   -2.87487682422725
H          -0.46991156537619    1.24151729604384   -4.15807680204010
H          -0.59874436124899    1.63173922249118   -2.65748286866920
N          -0.06496137647213   -0.26060097299011    2.60198544477131
H          -0.27054809237411    0.66173019285582    2.15499042476352
H          -0.68799937465538   -1.00477806350062    2.14503617596795
H           0.93652432432597   -0.52784233598811    2.33139905896426
H          -0.19670201900917   -0.23137084747138    3.60699717967426
