    26
        -50.47059806  Gyration_radius:  2.39152353548 Dipole_moment: 8.231
 S          -1.40493698522754   -1.12569515539773   -0.41716665986396
O          -2.27437497438250   -0.44382018601411   -1.32946525324106
O          -1.25790461759951   -0.40467575858818    0.85814088680054
O          -0.06695450962123   -1.36702729249819   -0.98152755568331
O          -2.01792438816986   -2.51486755005473   -0.07632172859582
H          -1.30090920368372   -2.95067956123255    0.42255918286126
H           0.78954753051235   -0.21029673921553   -1.58790499183687
O           1.37223948101714    0.54182252828739   -1.89517007477977
H           1.97202958968276    0.16020350677519   -2.53782118554889
O          -1.15826979542376    1.89333607361132   -1.99562189567101
H          -0.27972941305880    1.58221130520295   -2.24741399641251
H          -1.70212076270699    1.08627413864121   -1.89295831251669
O          -0.94618197445490    2.21960525091873    0.60137025863054
H          -1.27459685171555    1.31715860952868    0.80234387232944
H          -1.13083662034797    2.32266944450594   -0.36720068780557
O           0.91718848302598   -0.56243444971864    2.18985032044850
H           0.05454323561566   -0.55687748623687    1.67732023114972
H           0.67351967738699   -0.37613905495150    3.09851235103405
O           0.37744227186720   -3.10938291718373    0.93319770177519
H           0.72615241893813   -2.54975179235208    1.63745468275739
H           0.49798311423142   -2.58937849642341    0.11760240430745
N           1.52680959482537    1.53972544166773    0.60498382813288
H           0.50103126308476    1.95410335797547    0.63797965237129
H           2.22954965682035    2.22353765893104    0.86092646775860
H           1.51627928366213    0.72299823194681    1.25682803639457
H           1.66042448572014    1.19738086187524   -0.37049751479022
