    26
        -50.46869425  Gyration_radius:  2.51878377239 Dipole_moment: 5.468
 S           0.51471231719613   -0.36842111018759   -0.86431619457849
O           1.47005587862831   -0.53271685934253    0.22972684743459
O           0.40664600105846    1.01766785139480   -1.28769990793107
O           1.08226278097358   -1.22125865319618   -2.02448004740794
O          -0.79749182290033   -0.90596999101511   -0.48869126215547
O          -1.36749519798349    1.26800380516606    0.82191214445379
H          -1.32146580251510    0.40368425624346    0.34694673857359
H          -0.80740063832289    1.83837464493441    0.28129547390036
O           2.25838888462815    1.13985697843011    2.07516409360891
H           3.13402647372101    0.84630554918253    2.33220439961436
H           2.03122574054632    0.61903194268682    1.26696268906749
O           0.06648824377911   -1.98069141153300    1.88380085258144
H           0.76094447909295   -1.61029962392717    1.29056724097545
H          -0.67890787377106   -2.08490315112715    1.27912781908111
O          -1.90107437647991    0.71686031922076   -2.51782731033409
H          -1.06885575319990    1.02143429668799   -2.09464921911165
H          -2.25868297912427    0.06868076572716   -1.90261731572909
O          -0.40590207934944   -0.75198497561774   -4.10759427998371
H           0.50884695087799   -1.11300060178197   -2.83300652716751
H          -1.10300712739937   -0.20997836164932   -3.65832398705546
H           0.07731417311773   -0.14932560351629   -4.67675108031144
N          -0.12991257867747    0.40529731364144    2.97241378052031
H           0.84864434137519    0.76562013136352    2.84529122306897
H          -0.11227718386623   -0.62952170223534    2.71301463267879
H          -0.49273481662695    0.57536033706450    3.90314716917233
H          -0.71434804554995    0.87189386360199    2.21438203728073
