    26
        -50.44693330  Gyration_radius:  2.49073356427 Dipole_moment: 4.030
 S          -1.54676371540202   -1.48337417014515    0.13080342978686
O          -2.36420213345026   -2.21278606598206    1.03106807119256
O          -0.22032484363338   -2.02193338011619   -0.09438922208162
O          -1.37969478036836   -0.00815899102269    0.61992033324737
O          -2.24439480232054   -1.25904519609444   -1.20388673058355
H          -1.64082686421662   -0.59915874734631   -1.72776396933410
H          -0.86958181011347    0.04893654964778    1.47164249475849
O           0.91130428896793    1.73073908388722   -0.68445733746764
H           1.63479436052660    2.17559697191456   -1.12841131883127
O          -0.12498822857286    0.56592570080585    2.82984649175360
H          -0.15210969688728    1.48507039159889    2.45752297476050
H          -0.73659235814832    0.54573488731855    3.56847445029271
O          -0.49757681113983    2.75149994865731    1.39607415924968
H          -1.40539563750073    2.61155734175803    1.11680875822208
H           0.04311778917922    2.49233855722777    0.62164778769387
O           1.00280447343695   -1.87561883433271   -2.46321253059917
H           0.73721904648445   -2.63055936623754   -2.99062580597110
H           0.64674498890611   -2.03157221947721   -1.56451717405345
O          -0.62251703509064    0.25114127788666   -2.39109594961648
H          -0.19394618259463    0.85481965023564   -1.74985004191322
H           0.05751413669230   -0.42205915379348   -2.61052377709720
N           1.87354735892511   -0.25796773809410    0.72846203503450
H           2.81970762029155   -0.59793274507620    0.61463637817181
H           1.23751314718235   -1.01001829562768    0.46610425874558
H           1.71777472583949   -0.07089769465731    1.71208602467244
H           1.31687295299611    0.96772225731047   -0.15636380987458
