    26
        -50.45553154  Gyration_radius:  2.4518468316 Dipole_moment: 4.712
 S          -0.34533743994526    0.26630180494411   -1.93426897835825
O          -1.19081364306136    1.39421961903478   -1.53161505235581
O          -0.65846947342800   -0.93428804991764   -1.20618567393411
O           1.05974873865328    0.63634431981260   -1.89361229079737
O          -0.68488432765943   -0.01627203577420   -3.45522994599638
H          -0.34540425640828    0.75442739226758   -3.89933871807739
H           1.70991794523363    1.00100642808202   -0.50203435357386
O           2.03239411763279    1.29738434921610    0.39517177735838
H           2.86562126315509    1.74403571446489    0.23829363299424
O          -2.97024786681413    0.16775425382421    0.24296514197868
H          -2.49060066926877   -0.65798555896377    0.35757466861184
H          -2.61692646169853    0.54746108439234   -0.57089308554456
O          -0.79649928540607   -0.76745321537559    2.14458214623952
H          -0.96323301092754   -0.92752071400060    3.07381531956759
H           0.15160750960095   -1.03058164949396    1.96843389533364
O           1.71660167955840   -1.21037158151190    1.61954698288293
H           1.99274814624770   -0.35444578629372    1.25878058023125
H           1.68578111758209   -1.81058967091713    0.84266499246019
O           1.30078416765594   -2.61067629248523   -0.62732298856775
H           0.60986459553722   -1.97709192751685   -0.91965037947156
H           0.85808403459486   -3.45738019869904   -0.54731896890084
N          -0.58477623254186    1.61079734693530    1.00700524534503
H           0.44802719554312    1.69613203964679    0.98461207002938
H          -0.91594492144380    1.57752092198802   -0.00342917748574
H          -0.83621208833567    0.68196737153628    1.46131514293650
H          -1.03183084415376    2.37930403481542    1.49613803703375
