    26
        -50.46414326  Gyration_radius:  2.51105482699 Dipole_moment: 2.889
 S           1.68766184517017    0.09988286829465   -0.85775281716574
O           1.28225330609053    1.41879492338684   -0.41887444371104
O           0.70923312850141   -0.49160791373340   -1.76532350245817
O           2.01185900692034   -0.77113301710510    0.25626634481702
O           3.00824799282261    0.26833328834055   -1.71594033020412
H           3.60735802293259    0.69188014039652   -1.10929078565960
H           0.80440076528536   -0.20914663004693    1.39492043116545
O          -0.06210058233499   -0.25568041095703    1.84682634012557
H          -0.15763423640036   -1.22015420385285    1.99824293663066
O          -2.10322531928483    2.73500161793814   -0.16744375780972
H          -1.77912337082577    3.30536799630825   -0.86658672040330
H          -1.44862928848583    2.82635511786827    0.57430089345939
O          -0.11322204935535    2.59978718995494    1.54924427780238
H           0.50599387318401    2.30105860824742    0.85577172823856
H          -0.20491323924029    1.84284684273542    2.13792456814545
O           0.29736216711648   -2.82666689542431    1.25787735074691
H           1.13618460045883   -2.43594740617007    0.97632209713139
H          -0.22724891077015   -2.90938582341146    0.44376365590772
O          -0.85477491841843   -2.59474554122809   -1.25536132855609
H          -0.72848896497692   -3.33196820445774   -1.85415492014242
H          -0.20624862503604   -1.91114703957986   -1.52235722194491
N          -1.45929862461949    0.17198934139934   -0.36363180929801
H          -0.67822185179091    0.05990933920395   -1.04929059828063
H          -2.16864644001506   -0.53292973223216   -0.54861174567966
H          -1.01977529677863    0.00989973948613    0.59321568397624
H          -1.83900300012434    1.15940582463012   -0.39005634682268
