    26
        -50.43396008  Gyration_radius:  2.62513476906 Dipole_moment: 6.339
 S          -2.72949369152178   -0.10259758285716    0.28367387147807
O          -1.62653944898027   -0.52479969716796    1.12472755545062
O          -4.02139105299039   -0.14356823274105    0.85520234257936
O          -2.66296354744777   -0.93599801288227   -1.02325575909329
O          -2.41382313577578    1.33981532439206   -0.19585492334155
H          -1.86055310274933    1.30299261751983   -1.05373490829881
H          -1.75883854646633   -1.40038232017921   -1.04176747931886
O           1.17738518273699    0.24299464991946   -1.18752497672665
H           1.86498154683291    0.73386541962802   -1.63439068522725
O          -0.32194850524793   -1.93587328207765   -0.92908314967127
H          -0.26632089528452   -2.04876751341529    0.02603332807279
H           0.29827191863405   -1.20315371264978   -1.13762606744553
O          -0.99029323743173    1.07081676336081   -2.27859299887721
H          -1.39671573653575    0.33766195203397   -2.74662854290729
H          -0.10590762808657    0.73446665159990   -1.91493435189695
O           2.52609538466055   -1.29432006254959    0.50465893177205
H           2.05126392152468   -0.75539793363404   -0.17843853079229
H           3.29145970888539   -1.67501056006079    0.07388390476521
O           2.38874945051486    0.42017466354165    2.58007636764986
H           2.13479543232697   -0.06503902975259    3.36649840081103
H           2.56484275812702   -0.25473430339195    1.89022800259260
N           0.36496912080994    1.26829502115597    0.95154584658673
H           1.09997503595484    1.15840106816089    1.67372255807214
H           0.03194434966979    2.22224342328592    0.88615252820772
H           0.78762023448228    0.87538872177334   -0.06153500577116
H          -0.42756551663850    0.63252596699091    1.16696372131936
