    26
        -50.46967632  Gyration_radius:  2.48137488368 Dipole_moment: 3.418
 S          -0.31475678212198   -2.03492103023338   -0.11241338752497
O          -1.47048034853357   -1.50960884486888    0.58720915551853
O           0.94327392774758   -1.53773374432979    0.43328971741274
O          -0.38173345581008   -1.86965885685940   -1.55234424923695
O          -0.32173843809970   -3.59813366215111    0.15204426171354
H           0.34135677700354   -3.89755797943520   -0.46032501030653
H          -0.65194760389170   -0.41190013094321   -2.08623546886996
O          -0.86081370307229    0.51009478138616   -2.40474182891359
H          -1.32464885823226    0.39261736494194   -3.23571018828247
O          -1.90124968352095    1.05934400697181    0.06990974174982
H          -1.93299572847896    0.10328547479305    0.28537793304016
H          -1.61574965420247    1.07989944522552   -0.85925964981552
O           1.52022037035575    1.78943600893317   -2.18326754884130
H           1.33432930514909    2.71479025093242   -2.34795700145745
H           0.68546170812839    1.30335841568645   -2.33327077296801
O           2.12647780338688    0.88452788389368    0.29964838875680
H           1.87735043851324   -0.05911356101348    0.27471418299720
H           2.04476604407851    1.20594455497417   -0.62018159809456
O          -0.08525489285422   -0.94925147323152    2.78559997561319
H           0.56660388974207   -1.26355253995247    2.12906138214455
H          -0.91969148380673   -1.22955126616907    2.37728603927067
N           0.06572194527625    1.49887183978088    1.77810837118081
H           0.96343768277223    1.38818497486933    1.20150342855066
H          -0.75568018005965    1.48276956284550    1.10748465505821
H          -0.00794181804908    0.61576523274509    2.36038883973143
H           0.07568272857992    2.33209330121409    2.35408062156833
