    26
        -50.46549867  Gyration_radius:  2.4894165812 Dipole_moment: 2.002
 S          -0.31074775044165   -1.28392041879474   -1.07585052169685
O           1.02293644613183   -1.76336461555279   -1.38572505168487
O          -0.52848505225477    0.09239720737659   -1.51373622247998
O          -0.60231331852003   -1.41331197369991    0.35268351735958
O          -1.31164211001683   -2.19599035221523   -1.84923739131282
H          -2.15723508579847   -1.70338475079732   -1.79375830928824
H           0.58350562450115   -1.34629378165103    1.50026329152686
O           1.37779836295078   -1.30709858879721    2.08445750885131
H           1.53554224913655   -2.20965932851197    2.36578271038752
O           1.31382783742052    1.85848714773284   -0.71249558893906
H           0.89530378095171    2.24473726990215    0.09251224919638
H           0.60894412237763    1.32072412927004   -1.12965637330334
O          -1.80674730471758    0.67894722406020    1.43210161251823
H          -2.08577901180108    0.32945713352203    2.28016085495519
H          -1.40227828695731   -0.07715284809648    0.95495394237859
O          -0.03509609009424    2.68121014690260    1.43472524816658
H          -0.55866751587200    3.46662134610870    1.26854671335296
H          -0.67591867973553    1.93482423729703    1.47612434920743
O          -3.11982711717734   -0.29315101099927   -1.65276909910126
H          -2.25395319702205    0.14046085093787   -1.50948335343026
H          -3.48070217284282    0.08012883241091   -2.45989237315578
N           2.64048529174640   -0.24439211593462   -0.02186000082552
H           2.13157742945307   -0.91536021762003   -0.66616087117995
H           2.36264752596679   -0.53269000071415    0.94243545443854
H           3.64444110833681   -0.26807673635784   -0.15869941723769
H           2.21238291431560    0.72585120423194   -0.25542288868483
