    26
        -50.47096521  Gyration_radius:  2.40554398897 Dipole_moment: 5.278
 S           0.84741174191571    1.11405634623043   -0.05292029437594
O           1.62007430062964    2.07715529320883   -0.98302271625923
O           1.00978562897366   -0.24103276086163   -0.58651811941859
O           1.41163316769014    1.22377966995714    1.28040615819089
O          -0.56609494496925    1.50174575707175   -0.06447566223479
O          -1.69879024930033    0.50864723385477   -2.21930104336156
H          -1.74662254544846   -0.42130592172739   -1.97036509793646
H          -1.42733675570487    0.96741916073632   -1.39518572644864
O           1.96911721105856   -1.27143024075771    1.74328334483283
H           1.89474809870475   -0.28442266094370    1.71916085437257
H           2.15227977705131   -1.48338336904435    0.82095337527392
O          -0.95084719112134   -1.86332497799382   -0.72455026854510
H          -0.63448398766291   -2.61500924451782   -1.22872806364728
H          -0.20391820698384   -1.19259091668354   -0.74282758943045
O          -1.08949550674066    0.91160620170718    2.40515226778763
H          -1.08684777572796    1.22463257198614    1.46810469730898
H          -0.24124605887734    1.23388423863939    2.73261758471644
O           0.53503388122028    1.46904259160149   -3.27018873630085
H           1.28808268700423    1.84612404666590   -1.89214384185935
H          -0.30501321472573    1.02597210511879   -2.98973101074407
H           0.26917673571555    2.27786043671951   -3.71332799994045
N          -0.62808371548641   -1.63034935860751    1.94678925463412
H          -0.92976943892285   -0.63139170315465    2.19561863594613
H           0.44295311201208   -1.60937325225324    1.95032622191238
H          -1.00140186888440   -2.30610097171574    2.60426044152737
H          -0.93034488142042   -1.83221025523492    0.96661334399817
