    26
        -50.45369498  Gyration_radius:  2.73089908184 Dipole_moment: 9.084
 S          -0.72097635161484   -0.91122869959046   -0.76962384324596
O          -0.17113139613262   -2.20337443918996   -0.38627917439684
O           0.35865052286391    0.07729988799026   -0.94165108209413
O          -1.68670472507993   -0.42226474022726    0.21479350292392
O          -1.43106890761434   -1.09540816500315   -2.12393166028201
H          -1.83313719191227   -0.21782415562093   -2.41689484099456
H          -1.01919030987608   -0.34083705218700    1.69662796128881
O          -0.52704284530654   -0.30497291315867    2.55744723842542
H          -1.02090989081567   -0.86645625475301    3.15703077731122
O           4.28082561946392   -1.69127841342414    1.29401846471903
H           4.50264152200438   -2.57577976791749    0.99427602227030
H           4.95607552370299   -1.09546221755510    0.96214917822597
O          -0.60699348442746    2.51660405637827   -1.46371639462235
H          -0.10920011899114    1.69045287948784   -1.30214869449057
H          -1.09756063278802    2.67029330073055   -0.63455530265626
O          -2.30075336421241    1.18673490658822   -2.92722661745083
H          -1.72286825812629    1.81095830069856   -2.39881990397790
H          -2.04491553879641    1.29793878337391   -3.84495666065905
O          -1.91402990583740    2.17197204562761    0.89918451724704
H          -2.00943962117614    1.24865533718780    0.59495178445095
H          -1.44265245657140    2.11822965702902    1.73325474454000
N           1.56375380016616   -1.01570046589106    1.05704879260734
H           2.54944006391914   -1.23245397516181    1.25181959468639
H           1.00882081033250   -0.72279010414028    1.88832248252814
H           1.42175591413260   -0.29103994194738    0.31323445748708
H           1.01661122275435   -1.80226784937227    0.59564466624739
