    26
        -50.46469940  Gyration_radius:  2.37685256127 Dipole_moment: 3.560
 S          -1.13140098830544   -1.46262862531090    0.25553983246138
O          -0.70107586448599   -1.64560608936814   -1.11661798667502
O          -2.33027641470427   -0.65741491050589    0.37558454012836
O          -0.04345469709762   -1.01303839956578    1.10683821858829
O          -1.51194934317501   -2.90518572888268    0.80256753788816
H          -2.32044411600482   -3.10069037429217    0.33966574916362
H           1.38242964985031   -1.43767162339708    0.33715568457270
O           2.20438345190490   -1.56163881385289   -0.18954691175026
H           2.12972057977223   -2.43696149621680   -0.57273222447250
O          -1.69712617101815    1.06997277454850   -1.65684040371032
H          -2.06591874101110    0.37868814302762   -1.08907527740601
H          -1.92399464948206    1.90101359130794   -1.23287820699273
O           1.91266806480102    0.70924868864254    1.90298193939188
H           2.66646501171375    0.19005906721863    1.61309515537035
H           1.14821196410317    0.11570560163166    1.81847600409010
O           0.76666451016887    2.24368584959849    0.00992537728573
H           1.33648209140437    1.88510487158705    0.72151571462163
H          -0.13575542987786    2.19188642490679    0.39037052470855
O          -1.50634387447236    1.69105136048294    1.35019650830517
H          -1.17610518221019    1.53165637100790    2.23654088878557
H          -1.87373513603889    0.83825776633549    1.04368294582523
N           0.98950297215179    0.30285027811141   -1.71563473372573
H           1.15070774236989    0.58969437453139   -2.67457657779122
H           0.13356407573591   -0.30086821737760   -1.65409324462711
H           1.75397980474938   -0.28233341496489   -1.32603015140968
H           0.84280069915673    1.16516254078580   -1.07611090262478
