    26
        -50.45660189  Gyration_radius:  2.76352989455 Dipole_moment: 1.621
 S          -1.50643614881143   -2.20761790730305    0.93296880664600
O          -2.17195352870106   -2.32870945668045   -0.34971448770394
O          -1.97345002137692   -1.04848221510626    1.68544290963631
O          -0.05328140472497   -2.24036514372552    0.83154805635249
O          -1.90465448241671   -3.49085923054312    1.78063689611119
H          -2.85378029386542   -3.52518435689145    1.70076184736804
H           0.31815833717327   -1.59891144080575   -1.01075800455766
O          -0.26762530217882   -1.11212691542477   -1.60911902798105
H          -1.12731079122162   -1.55906683153805   -1.43751548989201
O          -0.18834144163344    3.37748008349956    0.04888655004813
H           0.74558235655928    3.06901837036547    0.05222263577656
H          -0.29785820915768    3.88465999026106   -0.75648025201078
O           2.13589114711670    2.03592831536480   -0.16491161959870
H           2.25839157183448    1.26790540659661    0.40474241762469
H           1.94308580701504    1.68644672684753   -1.05342391532905
O           1.56898803031264   -0.30200498745814    1.51466528814862
H           1.70915133552500   -0.32281365047064    2.46251311469458
H           1.06133549756558   -1.12340756688215    1.29993315055065
O           1.27264579998679    0.95685482278061   -2.54675625341214
H           0.69643858712789    0.19462530312555   -2.36983809240604
H           1.82176843951319    0.71775093547597   -3.29404220281423
N          -0.66075298132624    0.76070372533225    0.36897124210638
H          -0.60029010231206    0.28272379031412   -0.55037556600267
H          -0.79907486631304    1.78796715666657    0.26644637452367
H          -1.37471362568780    0.23699556586493    0.94253523653007
H           0.24808627999903    0.60048951034024    0.85066036558398
