    26
        -50.47096518  Gyration_radius:  2.4055027448 Dipole_moment: 5.279
 S          -0.54208501756384   -1.07315262707561   -0.71909076936347
O          -0.74503641280513   -1.68540925599594   -2.12394321726445
O          -1.50962928288384    0.01474955374494   -0.54952507487769
O          -0.75093848258257   -2.12037941786932    0.26469919163967
O           0.82675712897670   -0.55373063665142   -0.65676080293991
O          -1.93853571487595   -0.31864622363682    1.98555828737924
H          -1.91686803613947   -1.28157318810301    1.93151062837392
H          -1.94027363600403   -0.05367977541795    1.03379900977998
O           1.34553991177249    1.71666414056903    0.37806991383894
H           2.26584478112180    1.89340370621184    0.17532687181358
H           1.12316970675042    0.86225304754661   -0.10012617856283
O           1.48300466277493   -1.95748505831858    1.58143489048012
H           0.62130880718547   -2.20985947415647    1.16419258925840
H           2.00357930273460   -1.67981857165768    0.81918274626290
O          -0.58243926820082    2.16607730165927   -1.74327951197077
H          -1.07757957299483    1.45593855324100   -1.28077491506291
H           0.11253516682945    2.41532959285316   -1.12364907649780
O          -0.08393683599552    0.35008640623907   -3.60630983291932
H          -0.17003600543919    1.10538851904687   -2.97168854284079
H          -0.44613065378068   -0.96489544537406   -2.74174729176300
H          -0.76446725099654    0.48622620123697   -4.26936819293822
N           0.54886683124021    0.30641823800308    2.53930511169434
H           0.85605701760339    1.01988933096620    1.83973889400929
H           1.01711505150586   -0.61986652693117    2.27406837877575
H           0.76678315627988    0.58928210521805    3.48839398319828
H          -0.50260536453216    0.13678950465291    2.41098289049647
