    26
        -50.46896691  Gyration_radius:  2.40434648154 Dipole_moment: 6.646
 S          -1.52233636041024   -0.71224415320662   -0.60338290776742
O          -1.66971159312379   -0.49584016160208   -2.02101519853575
O          -0.88930510423077    0.44395680620994    0.04208200367636
O          -0.76281971550525   -1.92420364227578   -0.27958140070708
O          -2.94313390520491   -0.86232294706723    0.01261719551828
H          -2.75867507356214   -1.19081852057692    0.91969468491245
H           0.77208427333209   -1.62270381739119   -0.27008153731483
O           1.74931282304124   -1.40880069066588   -0.26854172184537
H           2.14376581872244   -2.04000554353749   -0.87268594766543
O          -0.06371259030682    1.40350812466572   -2.72320352103582
H          -0.62391019054567    2.17924298933215   -2.65406059272211
H          -0.66743907525113    0.63691675185719   -2.52759850056346
O           0.58951738378123    2.37254379836837    1.20634560762121
H          -0.24253444065959    2.04582398262860    0.82775596380044
H           0.74937605543837    1.77662300981392    1.95331670910318
O          -1.81305675223094   -1.88876290737312    2.16263066886304
H          -1.16631266346590   -1.29898645450316    2.58003737027910
H          -1.33848227015177   -2.28876091044358    1.41452622536688
O           0.48374853129826   -0.26157959978324    2.16929732389955
H          -0.05987937828673   -0.04761303095461    1.37563167629358
H           1.16743190991868   -0.85639925939225    1.84953451231753
N           1.80261596747419    1.21622970030842   -0.86161176757421
H           1.07402405420858    1.32102918387120   -1.63248845454725
H           2.70619275386088    1.56741388613186   -1.15993189347148
H           1.43498034329711    1.74147954516245   -0.01677577373068
H           1.84825915857851    0.19427386041534   -0.62251073418781
