    26
        -50.46995673  Gyration_radius:  2.40468162892 Dipole_moment: 4.981
 S          -1.48008510926216   -0.06040619758335    0.11687088116362
O          -0.59539794469503    0.65402992241848   -0.79678810449917
O          -1.91649487373329    0.80908178911852    1.20176390747121
O          -0.79794436775610   -1.25092434440169    0.64505935452285
O          -2.73025942743272   -0.52019735335834   -0.65296633423203
H          -2.38472978150644   -0.92259496283773   -1.50329817474576
H           0.45027347887376   -0.89416258118440    1.55571305495787
O           1.24834746434573   -0.58524602062570    2.06897024596708
H           1.37249402445655   -1.22652850145836    2.77017427803289
O          -1.72777227675187   -1.68662312105869   -2.72370976051240
H          -0.83296694168571   -1.93900395720526   -2.37572754589403
H          -2.19041606469619   -2.51046348423314   -2.89237615081725
O           1.15952417600231    2.66434193764083   -0.48302728427944
H           1.88288275590156    2.05188290080908   -0.68819872578759
H           0.37948233077690    2.23146684842471   -0.87498886394355
O           0.46809264891104   -2.34163917427256   -1.42891762876482
H           1.21594556728369   -1.73333601203272   -1.51123325873347
H           0.02062587470462   -2.08465031420210   -0.59674013130168
O           1.97627249790456   -0.02725317953464   -0.66717039028980
H           2.06479922396464   -0.32085926698892    0.24680888492571
H           1.02177654768064    0.15878683960982   -0.79088155570603
N           0.29231171357175    1.93110442839469    1.90098100694923
H           0.83022752167217    1.07898075964720    2.15843589873457
H           0.70364255680406    2.34729466530985    1.00876377897376
H          -0.69444055577268    1.57068223950850    1.65505555999128
H           0.26380895042890    2.60623614009897    2.65742707782713
