    26
        -50.46225835  Gyration_radius:  2.49601910109 Dipole_moment: 6.724
 S          -0.90761408226818   -1.55765362280544    0.92370183129517
O           0.22325884243244   -2.47379609127662    0.84834664614474
O          -1.04720339284820   -0.74880861706462   -0.27337246864976
O          -0.86601156285064   -0.75988203406955    2.13517922722368
O          -2.20847217937630   -2.44915352474841    0.99695268615659
H          -2.03886511322432   -2.99681240134183    1.75628468099924
H           0.43010551666931    0.16546884138832    2.28913972621251
O           1.25552707713104    0.71916298540052    2.26568582825322
H           1.48475860916094    0.89513737198980    3.17929865101751
O           0.13600579164593    2.15911295474825   -2.21913876471293
H          -0.73719656833742    1.87795616620879   -2.54167514495273
H          -0.00966466060669    2.30467516111618   -1.26475707398490
O           1.04250481293792   -0.28259681584269   -2.00296485392587
H           0.84603673227007    0.67885557555566   -2.18792591942565
H           0.19858758440115   -0.63421799909405   -1.67693536901104
O          -0.55720726369387    1.87728725282435    0.39463281065898
H           0.09353044470821    1.84133780976296    1.10384869576516
H          -0.83678861923080    0.95750077274583    0.25230684875142
O          -2.35161111359492    0.94341633497290   -2.08790688941848
H          -2.02022226005055    0.21485105569079   -1.54328101610542
H          -2.77550537963921    1.55072446570089   -1.47740404088439
N           2.16553998471101   -0.84923548553169    0.23475458053165
H           2.05573808350627   -0.10933659587722    0.95048003249810
H           1.48483566449890   -1.62186987120439    0.49489913502135
H           1.82056054197245   -0.51019619688919   -0.74694243663220
H           3.11937250966919   -1.19192751236424    0.19679258715694
