    26
        -50.45758015  Gyration_radius:  2.53963195366 Dipole_moment: 8.219
 S          -1.14744580752402   -1.03873658841765    0.30043510088012
O          -1.77041964753605    0.05335756768024    1.08700739585303
O           0.11287107056271   -1.43479672211683    0.88318118560112
O          -1.02591028227977   -0.62550357282706   -1.08570443441794
O          -2.11097604739216   -2.25782912643631    0.37886447458067
H          -2.98246422395642   -1.88258166765573    0.14513477443731
H          -0.11364182215444    0.54684542588156   -1.50963066191209
O           0.42442459039802    1.37309025564247   -1.70783800697244
H           0.14634814150778    1.64752524742813   -2.58328410040211
O          -4.17571980624512   -0.59874600090278    0.24457585383512
H          -3.39370847694442   -0.11535568528103    0.57860882501816
H          -4.77471317102649   -0.69859642176805    0.98799938342787
O           2.03630926778120    0.24693527376077    1.63032325412032
H           1.44814315657526   -0.52943058399639    1.51512488567464
H           2.61238423381063    0.24976536724950    0.84994706595500
O           2.91783115349834    0.51622338670221   -0.98108465478180
H           2.05988456677924    0.81992321363782   -1.33534236939300
H           3.53528289344050    0.49500845109838   -1.71350547106988
O           1.97016083853026   -2.23272661442320   -1.03085944398150
H           1.23868967389491   -2.15780619548522   -0.40351196529026
H           2.42885945599925   -1.38577545260152   -0.98615616089990
N           0.10966937338635    1.84106265418131    0.95413952780482
H           0.97078324700457    1.29263582051950    1.32410835306062
H          -0.72217434563354    1.18468993408209    1.08757686657830
H          -0.02560985443171    2.72313829659685    1.43580396085475
H           0.23114182195463    1.96768372745198   -0.06591362856629
