    26
        -50.47250243  Gyration_radius:  2.48708547054 Dipole_moment: 2.864
 S          -1.13856782359742   -1.88045881365284   -0.55664353588881
O          -0.89246370099439   -0.65624467527322   -1.29450248236063
O          -1.83881407159121   -1.62931740723047    0.69693369246497
O           0.05037559864340   -2.68858520895469   -0.36396114375361
O          -2.11707888828319   -2.74618802633632   -1.45272151083222
H          -2.09141235835672   -3.58065207268072   -0.99728212824501
H           1.22545574904900   -1.88152268632543    0.34846351978964
O           1.66283105253396    0.02674026916496   -1.66886409139012
H           0.73633679530062   -0.28583818744694   -1.70237980975533
O          -1.44772167439845    1.95170276731321   -0.87174123390711
H          -1.37973861860069    1.06111627595014   -1.26285916517305
H          -0.53368154476154    2.29027943875030   -0.86405005637557
O           1.26338482907910    2.37201036130488   -0.60820294643070
H           1.83020942842635    3.03329056945885   -1.00573730841800
H           1.46048944651396    1.51040910328355   -1.07864238285339
O           1.14048711319480    1.03309186615295    1.79583922890004
H           1.48948097257847    0.16883880786626    1.50662638483539
H           1.29463911749809    1.63621831821793    1.04645528447870
O           1.96758250550631   -1.34629733479505    0.73443927593172
H           2.06364285289433   -0.48410554288709   -0.95034936049381
H           2.54301709105714   -1.97304538593548    1.17538381231606
N          -1.47520597108007    0.82345071359909    1.50162969940045
H          -1.60610703100757    1.39781494575909    0.61478709889097
H          -1.67227914581003   -0.18539036741161    1.23793754373202
H          -0.45001128632030    0.90303529469771    1.76854088069463
H          -2.08485045744884    1.12964697728151    2.25090072435219
