    26
        -50.46869642  Gyration_radius:  2.53647872498 Dipole_moment: 4.044
 S          -0.33141006495088   -0.84425268475233   -0.27296011630301
O           0.38924513876167   -1.36703329605851   -1.56204249471418
O          -0.47297402330771    0.61062197429286   -0.44943312527103
O          -1.61469737463567   -1.48796299470539   -0.14007642970420
O           0.60083330844594   -1.14845271161150    0.80415567256677
O          -2.89415121946504    0.20210138287984   -1.70603819016764
H          -2.67436441574987   -0.50000343781538   -1.05980688516841
H          -2.30521293814917    0.92265258800821   -1.45438015379003
O           2.91784012666574   -0.48909750575964   -0.21385644647908
H           2.15114019038894   -0.91418384220332    0.23404913400675
H           2.83094654634719   -0.74984885370703   -1.13387849315837
O          -1.11230422027145   -0.13703386886391    2.55874991893114
H          -0.51245072732207   -0.66088982426945    1.99610146472884
H          -1.96410577642862   -0.17126821170359    2.11989155884979
O           0.95963866923038    1.46721534021931    3.12226164791928
H           0.09038463993885    1.02970157888027    2.99676506121870
H           1.49288347937146    0.82746476876342    3.59917403453920
O          -1.40905275509253   -1.14627363746651   -3.41833034532195
H          -1.84198443083524   -1.99744243637628   -3.51467830752278
H          -2.05141697716295   -0.56834078986737   -2.93062652449370
H          -0.24601931082976   -1.28932770827990   -2.33019713967902
N           1.62309976837217    1.71424503175219    0.55014083601525
H           1.85405470843053    2.65028621755961    0.23636571859717
H           2.34654114979778    1.00740389578918    0.27268452053773
H           1.46084847508357    1.68386608545819    1.59339176216216
H           0.71268802338204    1.35585293982440    0.10257332173541
