    26
        -50.46475433  Gyration_radius:  2.61591479121 Dipole_moment: 1.395
 S           0.69316562291043   -2.10166277918099   -0.20189001197613
O          -0.35697283248672   -1.57934916602431    0.66277325653505
O           1.85083235297435   -1.22708965567658   -0.24766034670258
O           0.18245395179404   -2.47094746168934   -1.50608149151269
O           1.20563591561894   -3.44095470583728    0.47924556234835
H           0.44296633183650   -4.00784559937266    0.42480273719819
H          -0.63628495172179   -1.18283421892241   -1.97875043190138
O          -1.05229596626143   -0.34786652471613   -2.31644135358675
H          -1.36447503841271   -0.55484866147146   -3.19949453514943
O          -2.18536453348349    2.14670056355528    1.66722141765599
H          -2.33696425281404    2.07857145222854    0.70012617274158
H          -2.86696744014173    1.61582347886523    2.08196401388282
O          -2.23118452590843    1.76478214688287   -1.00078960606571
H          -1.65939742050551    2.41338783294523   -1.41706969003510
H          -1.94629883120623    0.90093284238949   -1.34649458039361
O           2.55486729020588   -0.06702341656208    2.05278783011529
H           3.50854555218426    0.00790257536560    2.10023116079593
H           2.36280577923287   -0.58794172353843    1.24454276121617
O           1.03689701121360    1.11386386993277   -1.30694087925541
H           1.57259437190091    0.33332701127009   -1.07459382700495
H           0.31280539072772    0.74900412984469   -1.84255098677193
N           0.17725315935797    0.91704016064885    1.22706137009738
H           0.47945244731374    1.24437566019537    0.27797600986052
H           0.99814832588771    0.89536058019847    1.84504718513292
H          -0.62226616520102    1.47654893311543    1.58713985286203
H          -0.11995153507286   -0.08925733442443    1.08783842991700
