    26
        -50.47165517  Gyration_radius:  2.51603156478 Dipole_moment: 0.610
 S          -1.00513857245397    0.80541550083790    1.55730208555362
O          -2.02462936906609    0.50353775315759    0.57469776757064
O           0.26182331566979    1.17525701269198    0.92762956251753
O          -0.82033295203143   -0.22427885384275    2.55797688634487
O          -1.50933248190478    2.09368865772909    2.32581128867210
H          -0.90421143261207    2.13692856370067    3.05847364938128
H          -0.09415678009220   -1.48456866176152    1.87050597239085
O          -1.19916964926490   -1.65338875802161   -0.82186765770811
H          -1.75560933231376   -1.01990980136361   -0.33400834280825
O          -1.97140225207939    2.00344076156050   -1.65946475480030
H          -2.06129400357812    1.50754949494837   -0.82139972724419
H          -2.79409055525001    2.47886519709205   -1.77677836760701
O           2.79400186983240   -0.25187355816748   -1.93487584375736
H           2.80861655744151   -0.32326320629663   -0.94909398477958
H           3.14028972420213   -1.07970535328257   -2.26977499799344
O           2.40908221421204   -0.50529390652174    0.69076927935111
H           1.87913495670104   -1.29134209569632    0.89530400163334
H           1.81639222406173    0.23696776779410    0.89409419156396
O           0.33351021095168   -2.22695450148597    1.37185641479800
H           0.28810344667607   -2.99199478473914    1.94805130811378
H          -0.63914754298116   -2.06893815234835   -0.14277199094616
N           0.22147545266874    0.44093958632377   -1.62606115652281
H          -0.30600776021712   -0.46675632571956   -1.51087381324861
H           0.29590333340068    0.83998573106491   -0.65720595334952
H           1.18022126029817    0.27119473439935   -1.99528675748473
H          -0.34403189226317    1.09449718792205   -2.17300904962935
