    26
        -50.46423807  Gyration_radius:  2.4725085001 Dipole_moment: 7.232
 S          -0.18677108857895   -1.54043586277402   -0.54329232988886
O          -0.29663394688163   -1.03210860454200    0.83943773181749
O           1.14231976393067   -2.04001852005656   -0.80920232311096
O          -0.56103950879483   -0.48304715887102   -1.48906052075666
O          -1.19789838833124   -2.69489084530650   -0.68445228584578
H          -1.99638355109626   -2.37641804158816   -0.16730997040305
H           0.36120973192704    0.78084282384417   -1.57274820292525
O           0.96780292010816    1.57381086357688   -1.49849337723238
H           1.55891240650988    1.51611924121608   -2.25070820336136
O          -0.67611754409531    2.73668846769796    0.46260163613761
H          -1.19214383842886    3.52046412537537    0.26560106843624
H          -0.19957306026204    2.51116069724803   -0.34920892640227
O          -2.60803639907598    0.78571236246034   -0.35369718292401
H          -2.09488621580455    1.39766552615130    0.19305311499552
H          -1.94350225146685    0.34153285086437   -0.91556726777342
O          -2.94131668578139   -1.57763929984688    0.84508029219548
H          -3.08666649141147   -0.70968688810375    0.40384899211980
H          -2.19443118761673   -1.41714481601792    1.43633451734106
O           3.28261648099710   -1.21542930037716    0.45212402741408
H           2.54935967567622   -1.57379136638279   -0.10862034761498
H           3.56322757775727   -1.94866402170589    1.00200000889714
N           1.56880877813554    0.71841375513927    0.99414678693661
H           1.55568769656132    1.37568388493490    1.76638668169283
H           1.48211188160329    1.21139406858375    0.07987492862278
H           2.41484377376853    0.09931597105075    0.96547974096309
H           0.72849947065284    0.04047008742928    1.03639139066183
