    26
        -50.47174029  Gyration_radius:  2.39583313845 Dipole_moment: 3.708
 S          -1.30127477368546   -0.77247189221395   -0.53323932856640
O          -0.73979420113374   -0.73494934522289    0.82977559603562
O          -0.81416098757045   -1.90381279165266   -1.28139089189910
O          -1.00952243367184    0.49918512156928   -1.20230996794312
O          -2.83899745338174   -0.89774247375481   -0.39940284069335
H          -3.05660022996302   -0.24521481630837    0.31052124322440
H           0.59531013520814    0.79263505765963   -1.78961830850383
O           1.57132141483904    0.83445380118352   -1.72071636200081
H           1.86319509561570   -0.08845685974302   -1.81753356315484
O          -2.81960176671917    0.76884036872406    1.61289088625399
H          -2.35414548881270    1.57441274797442    1.31667940585145
H          -2.11184383256182    0.16634341839459    1.88052113979588
O          -1.07701650290915    2.51799379100641    0.44744649086032
H          -1.38336032653069    3.30027170508231   -0.01354908677597
H          -1.04059645247005    1.80237852181258   -0.23313817644531
O           2.06393770603975   -1.64549875882453    1.29419261721124
H           1.12860873001864   -1.79985457522933    1.47204909659601
H           2.16773659575291   -1.84689297946196    0.34704233768673
O           1.77478127931776   -1.88823387570725   -1.43387795352333
H           0.78353786356895   -1.93526175895380   -1.38952510826756
H           2.04289063182943   -2.60132045617267   -2.01604882432268
N           1.33232961959009    0.85873574063293    0.88640749619376
H           1.55150119233798    1.01737949428159   -0.14826153476806
H           1.97570844957413    0.13049843420701    1.26093488027830
H           1.30666552375666    1.72421180735264    1.41469334835464
H           0.38939021193825    0.37237057334335    0.90545738850937
