    26
        -50.46880517  Gyration_radius:  2.43087503381 Dipole_moment: 6.450
 S          -0.90274145185541   -1.22058289746420   -0.58450817761429
O          -1.90711436027329   -2.20586578983915   -0.86264802476547
O          -1.17826587796867   -0.43768304970375    0.62315169848847
O          -0.92958296921277   -0.13988799042388   -1.76524970998546
O           0.46817278124061   -1.70552150064779   -0.59207007191368
H           1.42883760669586   -0.54059751492894   -1.18945666261620
H          -1.88796399829957    0.03428140559484   -1.80749289983247
O           1.88475285062794    0.27239417589108   -1.51997756190482
H           1.36341729417656    0.53499490701717   -2.28237049253569
O          -3.48105503310919   -0.13245402069800   -1.10844813751434
H          -3.19491214754808   -1.06509778865010   -1.02248421192759
H          -3.62251161791786    0.17381997955024   -0.20869388776470
O          -1.18401277686222    2.13766381176245    0.12334317250400
H          -1.52608121035919    2.20628968939807   -0.77020417117342
H          -1.27934911463982    1.18747080363275    0.37704574747593
O           0.85076839241736   -0.05800208349292    2.34007627420897
H           1.41309928346682   -0.84768807393401    2.20934201845798
H           0.01004094913743   -0.27480083974126    1.88766897714417
O           2.16549745415452   -2.21282415926191    1.40764776833951
H           1.51895128791138   -2.18794845873338    0.67538372677945
H           3.02608456832580   -2.31418207891270    0.99789311843169
N           1.41870472532471    1.78909350168539    0.61367419697647
H           0.45541791194819    2.15669006375454    0.42508979759392
H           1.29375009208109    1.06372324965834    1.41141059720456
H           1.73021462429081    1.26042012669190   -0.24578864443812
H           2.06588075624067    2.52629451179186    0.86766555038243
