    26
        -50.46858861  Gyration_radius:  2.44371971709 Dipole_moment: 4.169
 S          -0.87910595805238    0.62621920721228    0.33608860368915
O          -1.79397077100883   -0.47501371014794    0.01992367059447
O          -0.93167550867210    1.68819349349590   -0.65248858321636
O          -0.99871845461411    1.05779591547836    1.70611755825148
O           0.56267789325984   -0.02039846637264    0.17886418091134
O           0.73465465676336    2.92221590183819    2.42741886183150
H           0.99361259152174    2.72986451271951    3.32978235863322
H          -0.00263099762291    2.30830261752811    2.21653338044148
O           1.13189393147779   -2.73501140595642    0.09273748711642
H           1.67367266187185   -1.94156813373011    0.15394800291255
H           0.49821156859896   -2.64949850570252    0.84064928551232
O          -0.69965165830083   -1.97895966483890    1.93009396125752
H          -0.45626710665884   -1.33735359144915    2.60088651942633
H          -1.25411836511480   -1.47788638618273    1.30411023290619
O          -0.09539811483469    0.48260199587600   -2.83490929742924
H          -0.38183365151933    1.00008203522563   -3.58890496870722
H          -0.40726867494090    0.97057983179099   -2.03590597246470
O           1.65813989316377    2.28902786470060   -0.00567521786183
H           0.84968779408557    2.54533773479489   -0.47195366851588
H           1.54715109186935    2.65070478103234    0.89768483552339
H           1.15957059912461    0.78162175268472    0.10740175789461
N          -0.58034177844753   -1.91623677125492   -1.74261152627325
H           0.18474487553477   -2.33746977715484   -1.13074323199331
H          -1.21542321301060   -1.40087732403302   -1.05582469675721
H          -0.21556255683311   -1.15887594676244   -2.35461985909873
H          -1.08205075761892   -2.62339795080646   -2.26860367459120
