    26
        -50.46797257  Gyration_radius:  2.45590193768 Dipole_moment: 2.607
 S           0.15366711874733   -1.69377111951571   -0.55667125833664
O           0.31412098186315   -0.49018692803063   -1.34532114874991
O          -0.96896051397224   -1.57447851390153    0.37249380412729
O           1.36154954118173   -2.12758768449726    0.10495589467369
O          -0.23257269393496   -2.83181956331319   -1.58969046522354
H          -0.02247407043643   -3.63715133099716   -1.12792757004829
H           1.73442461307188   -0.60369091241211    0.84301434689382
O           1.65853388357430    0.14685828749381    1.46548990109483
H           1.41200220049223   -0.29442135129096    2.29765003886626
O          -1.71350180937059    0.79488457552333   -2.47233073036325
H          -1.01424729098928    0.22835250980115   -2.08455219240421
H          -1.56922897474382    0.78350678155943   -3.41966861343536
O           1.59825984984635    1.86787120011780   -0.93866369162963
H           1.25809943616160    1.00369329315789   -1.22842971776724
H           2.05936270039251    1.69134363095487   -0.11379678805643
O           0.15156702470485   -1.63908726544041    2.83629091705158
H          -0.33664942971066   -1.70293006190240    1.99297389368410
H           0.68517062743948   -2.43447998846093    2.88145198729014
O          -0.94521169400261    2.75666277835183   -0.80247377977303
H           0.02014812921729    2.70362569982505   -0.96379191371950
H          -1.35451168187859    2.21966687936143   -1.51259428822762
N          -0.87060819890568    0.97899974968475    1.08626684754603
H          -1.00123058925675    1.75757405313769    0.33976780959384
H          -1.16955682855583    0.04878688345488    0.71791133291829
H           0.15768244559696    0.85696772722255    1.27108478747801
H          -1.36583476642195    1.19081066011185    1.94656060654460
