    26
        -50.44563939  Gyration_radius:  2.4912809123 Dipole_moment: 6.217
 S          -0.03375848412822   -0.90259377373558   -1.82617827348629
O          -1.16861121705512   -0.76436388327933   -2.66711408953188
O          -0.31966957414745   -1.35701940164344   -0.48180068576572
O           0.75536171537679    0.43653302148908   -1.72197104109607
O           1.01909561291015   -1.80231154788581   -2.47020844073400
H           1.89947575803749   -1.62673875219131   -1.98885001086944
H           0.21204511896223    1.15694554550061   -1.26761849752590
O           0.28128973362222    1.55580574402635    1.98708010281499
H           0.22112897710023    2.13432555011025    2.74840476454080
O           1.77127527195916   -0.65384133625557    1.02647623167042
H           0.97207802345484   -1.00540922237125    0.59213986625324
H           1.50327427999075    0.19736351352926    1.39948954437580
O          -2.93702912938876   -0.42353703675141   -0.40455719067181
H          -3.15314615661926   -0.18818756439565   -1.30922008714523
H          -2.08915814073814   -0.88364666001068   -0.47122506705060
O          -0.43654407665641    2.30128479526212   -0.44965328563068
H          -0.19420040923377    2.06676492263435    0.48099005873949
H          -0.00752178571253    3.13558395619514   -0.65067143775367
O           3.11303540690512   -1.08005323205057   -1.20896793512477
H           3.22742603827232   -0.19670338189049   -1.56876096930001
H           2.76465777990203   -0.95709879276272   -0.29091741562640
N          -1.55986189218039   -0.28673776102164    2.16121837285347
H          -0.43593530147821    0.84339174328192    2.10921883551446
H          -1.10492794796637   -1.10480718752447    1.76956015743222
H          -2.02367226918916   -0.56788808831098    3.01641628318777
H          -2.27610734233780   -0.02706117989581    1.48672020032127
