    26
        -50.46789609  Gyration_radius:  2.48500729495 Dipole_moment: 2.984
 S          -0.61364096504782   -1.75790523283126    0.43636638004425
O          -0.13127838001823   -2.98269760640245    1.01158520118622
O          -1.06730799994585   -0.75459736320502    1.38217078847012
O          -1.91688976196383   -2.14538685362160   -0.40356726171831
O           0.30749051048081   -1.16667863650744   -0.53766228290117
H          -0.32810449198452   -0.29819425507382   -2.00514581320613
H          -1.82860503132403   -3.08053259272213   -0.56046938440225
O          -0.71021329378782    0.44899711749419   -2.49463426547926
H          -1.43478728352791    0.75769275615976   -1.93224453844144
O           1.27216422909826    2.26929966918333   -2.27317332395892
H           0.53215970296840    1.66235577548587   -2.50584019166772
H           1.91264136776040    2.19715236169479   -2.98074981595161
O          -2.16382099773579    1.06730929848174   -0.14516363985929
H          -3.10167272122787    1.17572630658007    0.01668832702411
H          -1.86620477583525    0.32849977838445    0.43442502667243
O           0.94162570490985    0.67646463721497    2.65213801983986
H           0.07197309680342    0.25270108130836    2.58477444992717
H           1.56161452453192   -0.06583174023277    2.52511835117883
O           2.06195839127834   -1.59242725646850    1.66988186402090
H           2.44464192808634   -1.54746938720460    0.79095846495120
H           1.31843816626121   -2.21588926028023    1.59084183662787
N           0.56964167462037    1.38682011876975    0.15347211814469
H           0.55028323928709    0.37995010556901   -0.15659193139719
H           0.88252871272850    1.36668984513459    1.16250565770584
H           1.13875828189680    1.92590005010965   -0.51821636076322
H          -0.40339382831988    1.71205127298992    0.10253232395031
