    26
        -50.46047677  Gyration_radius:  2.5176374738 Dipole_moment: 5.316
 S          -1.42794716756039   -1.33456292363698    1.01393607168942
O          -0.32857591794371   -1.62100130594299    1.93624354529451
O          -0.91923535900427   -1.18258230459612   -0.34020064207748
O          -2.28023968626586   -0.26208405771054    1.45995292124162
O          -2.34166685245525   -2.63510208025222    0.99063471744807
H          -2.99047226787504   -2.41307710512836    1.65010538622651
H          -1.38841404470911    1.15333254527564    1.27861244669633
O           1.62593136385033    1.49210333895888    0.45827830632969
H           2.12482702265525    2.20291478346502    0.86232665886894
O           0.27898469766100    0.67392960739750   -1.88850311790460
H          -0.28542325469828    0.05716669236366   -1.38351532197266
H           0.89256714239702    1.04261575019215   -1.23756159735316
O          -1.48957964087739    2.70460627459517   -1.49860866377220
H          -1.23320728221695    3.49376616241429   -1.97694568957919
H          -0.93161682272427    1.97453855355056   -1.83691375090658
O          -0.82805630673086    1.92486443093073    1.05551746276346
H          -1.21620461589168    2.29587679306935    0.24035054259769
H           0.66333315237772    1.64260694504210    0.74089818084484
O           1.21157735475632   -2.05232208544317   -1.66672518849481
H           0.30218802258790   -2.04151733452689   -1.30778012467610
H           1.22933203156380   -1.30167185096221   -2.27410230729506
N           1.90001732165199   -1.16773805892360    0.74886281654517
H           1.93344639951767   -0.12530078437821    0.68433047618990
H           0.99441164826313   -1.40780315688159    1.28858542250308
H           1.79065120597388   -1.57164656778593   -0.22225175562002
H           2.71337183571210   -1.54191224106374    1.22447322441484
