    26
        -50.46869645  Gyration_radius:  2.53644981316 Dipole_moment: 4.045
 S           0.25607746403024   -0.72761032224589   -0.54963017626666
O           1.50077074298977   -0.02369290654110   -0.27190711196337
O           0.04868151610219   -1.02844086113924   -1.94432714387827
O           0.38050678646333   -2.06061292989698    0.26399619564598
O          -0.89323806013096   -0.00825566474562    0.02424651817630
O           0.72342724901680    1.95422740335119   -1.85943656557744
H           1.13578402109451    1.20250987409091   -1.39501738007265
H           0.06269797980152    1.56410269053826   -2.43437238018331
O           1.83777348725512   -0.40413557178088    2.29334558708238
H           1.51965765627698   -1.30092105517215    2.42200168656810
H           1.92008175294687   -0.31177452088602    1.31669287360465
O           1.05494371520496    3.40139620476674    0.37223506301416
H           2.01460505582713    3.41507180833308    0.37620224172820
H           0.81022847669273    3.02336221371466   -0.49951313599804
O          -2.56408360930217   -1.30875456031578   -1.74340630566552
H          -1.65294036840469   -1.20193448332205   -2.08579228282831
H          -2.60382284835836   -0.66729116582203   -1.02478846740987
O          -1.66427371289864   -3.45808838660588   -0.50755929183926
H          -2.17304544689187   -2.73526418770713   -0.95820998449766
H          -1.37320543662207   -4.04907867866537   -1.20553774342000
H          -0.39617400836209   -2.64490288689239    0.02976822061163
N           0.00209522574481    1.49271581468030    1.91007591055512
H           0.44067246663778    2.31062290101648    1.40572802219753
H          -0.65716317443308    1.80076534183676    2.61607991395865
H          -0.47521662838860    0.90175770278834    1.14813514041875
H           0.74515969772519    0.86422621675415    2.30099061606538
