    26
        -50.46482635  Gyration_radius:  2.44694475196 Dipole_moment: 2.983
 S          -0.74314613497511    1.49081221621747    0.92551499499715
O          -1.79800236253501    1.33116034306972   -0.07157826293614
O           0.56122848935973    1.60762895300013    0.30547191098966
O          -0.81765121445006    0.47237810455435    1.95315033461646
O          -1.01109285038980    2.86617134928270    1.66168872264214
H          -1.67554849048600    2.60242007502679    2.28818380933476
H          -0.50141074532214   -1.02740051601117    1.45300451104260
O          -0.38377122084411   -1.94481153658351    1.09686071490738
H          -0.34435565690103   -2.51899274513425    1.86379735904720
O           1.58324632892425    0.28167097806919   -1.83189803343142
H           1.43891753333899    0.94331835379010   -1.13339764352808
H           1.85794920881960   -0.53311559876333   -1.33250279736747
O          -2.31827112589395   -1.48923817161665   -0.74693137703678
H          -2.58951400064651   -0.66225658465273   -0.32826587288810
H          -1.66975058479010   -1.87744290185438   -0.13102646613881
O           2.07989320974170   -1.66126776281224   -0.13151611409816
H           2.42843997970239   -1.07457095951219    0.56551167742092
H           1.20403459830485   -1.92258389106655    0.19762789154475
O           2.49835181285007    0.35565983593474    1.66262354680383
H           3.23851651776702    0.96361166405639    1.62532165617968
H           1.73553828883904    0.83090822024049    1.27744337458942
N          -0.95603146951884    0.18990439100654   -2.27425469158599
H          -1.26634292149811    0.85576964035578   -1.51649996024626
H           0.12808706750132    0.14198690651643   -2.21407213778356
H          -1.40394964191840   -0.70773718645349   -1.97471961850803
H          -1.27536462485077    0.48601682324863   -3.18953752856386
