    26
        -50.45565463  Gyration_radius:  2.71466674662 Dipole_moment: 2.986
 S          -1.84863041439747   -1.75154673751274   -0.51814338563688
O          -1.39677482669534   -0.71609183503091   -1.41822465413755
O          -2.22246690549181   -1.22435744126981    0.79340602621495
O          -0.90912079606255   -2.85520984221762   -0.41330292974570
O          -3.18479905612363   -2.34529884967610   -1.14633489254703
H          -3.44383325819633   -3.01192765965452   -0.51665194290053
H           0.54761959786060   -2.17609538250531   -0.45643541516764
O           1.39498088957335   -1.70187046818082   -0.24203689791064
H           1.93248857230513   -2.34124528864269    0.23084404816942
O          -1.67139654457943    1.77588972285896   -2.09546617256427
H          -1.70042279328026    0.82635332548950   -1.82652966415372
H          -1.45317104327044    1.76412046701766   -3.02919842861057
O           0.19924815489697    2.38901499545096   -0.37669504235677
H          -0.47977844622226    2.20060842633293   -1.08026531179477
H          -0.01713437089590    3.25131769917801   -0.01938452129007
O           2.14730375167431    0.82462024715369    2.58063897586132
H           2.87844833956192    1.10471743073405    3.13051342855201
H           2.45673189095704    0.88975639393485    1.65168422142696
O           2.62410840187176    0.91615865555837   -0.10068992724027
H           2.38082302790491    0.04757402617259   -0.44554750289770
H           1.92900855111553    1.52369972945586   -0.38981329576379
N          -0.04534306481058    0.13227349135270    1.16100041764673
H           0.58235475241176   -0.53421042935108    0.65512725174184
H          -0.06023346950161    1.02175001723180    0.61874267304209
H          -1.00265346093530   -0.32281348454507    1.16947224326969
H           0.36264252033393    0.31281280066850    2.08329067879204
