    26
        -50.47059031  Gyration_radius:  2.4769655161 Dipole_moment: 3.278
 S          -0.41102277212181   -1.44347529266626   -1.58580331725334
O          -1.43133567385312   -0.68160280834418   -2.26174189792971
O          -0.88291473537220   -2.07081083842069   -0.35729603035583
O           0.82798185572062   -0.70401267016468   -1.37464190270468
O          -0.01396252867386   -2.62995217756863   -2.56327901814238
H          -0.86576319720282   -2.91015112543310   -2.88057200114670
H           0.93182254138962    0.89379261764734   -1.33531942225754
O           0.98138759562362    1.88168519629146   -1.26761192191581
H           1.52622791965242    2.16963109978642   -2.00137246297181
O          -1.75578317139111    1.49646935834984   -0.75778295440527
H          -1.80999956459256    0.76041664388243   -1.39878372158417
H          -0.89376455556421    1.89867504886039   -0.92804636047252
O           1.24680982549086    2.42843731767624    1.34126892313119
H           1.26388839439928    2.25535555917894    0.37519530368146
H           0.56273821795195    3.08773135055918    1.47436862363636
O           1.45988593029975   -1.96949666588763    0.84129430545213
H           1.67215227881631   -1.50153650073821    0.01488382010972
H           0.58209801009589   -2.33679124937816    0.62233130594096
O          -1.85512026620909   -0.21157788013123    1.27664206005409
H          -1.67176879048274   -0.99288893579398    0.71453772875103
H          -1.96076773642658    0.52638552251594    0.63260898346085
N           0.51423847471614    0.01805605098232    2.30999975090126
H           0.89562939650475    0.94419350116701    2.00897921825071
H          -0.51561817180996   -0.04313477608802    1.97810256773677
H           1.01932727491321   -0.77117230171789    1.80702596945876
H           0.58363345813578   -0.09422602454880    3.31501245055498
