    26
        -50.46480223  Gyration_radius:  2.53302073853 Dipole_moment: 3.613
 S          -0.60455950189865    1.89839725718745    0.81505850524304
O          -0.69845617935008    0.67907664665559    1.61175351632628
O          -1.47996639627844    1.87842433932693   -0.32974267412827
O           0.78257060760140    2.19548895702458    0.48181147178169
O          -1.08273729394897    3.08368909252318    1.74745183635076
H          -0.35722329726249    3.11650596990842    2.36095794119167
H           1.57889412974173    1.07479811091724   -0.23952562703137
O           2.07626293005024    0.33061051047002   -0.69072595645820
H           2.76010998807975    0.75866862682268   -1.20825327355592
O           1.56295746653131   -0.71547813813575    1.90909428765952
H           0.75773813438712   -0.15808181823623    1.91698002341806
H           2.03762972629705   -0.45871125106215    1.10919305718093
O          -1.23111317599100    1.18432086374886   -2.82181636013449
H          -2.13859689609067    1.15995069884969   -3.13111287194543
H          -1.28228255584610    1.56837495631138   -1.91140714607185
O           0.32314969407308   -3.01939820782358    1.47665253455597
H           0.88548540413052   -2.22814924542025    1.67100266331765
H           0.10660775749792   -3.40146318985212    2.32791455983247
O          -1.48697391749795   -1.46866241348244    0.26989577746386
H          -0.94599952568567   -2.14756668253209    0.73643443119541
H          -1.36669004755348   -0.64412491874079    0.78930091752499
N          -0.02823004155378   -0.95599230563804   -1.80061721516959
H           0.85435436211838   -0.55405233513171   -1.41307666591309
H           0.16314804269811   -1.76972405415821   -2.37402136377273
H          -0.67689204154882   -1.21361130043122   -0.95928185638922
H          -0.50918737270243   -0.19329017909497   -2.34392049248801
