    26
        -50.45377425  Gyration_radius:  2.62949780455 Dipole_moment: 6.314
 S           1.69139261766716    1.04061416072905   -1.74592258882262
O           0.55821634801598    1.49954288821275   -0.90251765020495
O           1.24391862391491    0.01866873118549   -2.65135902976646
O           2.84778171321363    0.72413062141082   -0.94087105593222
O           2.10042713639028    2.31278066627646   -2.61245204280136
H           2.72408000010496    2.75660095259773   -2.04550497069035
H           2.57043067808191   -0.17814578451678    0.48162553418859
O          -1.54005656664548   -0.47776265436822    2.05915534542915
H          -1.70433660475866   -0.52859582215603    3.00133610330248
O          -0.15417277688791   -2.25030064915479    0.59427164008285
H          -0.64946273571549   -1.69459024199619    1.23793663118177
H          -0.36129198798643   -3.16494405326675    0.78869002074619
O           2.20052199094500   -0.64775083294658    1.25802315085440
H           1.66218980149394   -1.36423105055153    0.90291411580077
H           1.12727027503778    0.57722764273953    1.79514955294532
O           0.35989284383825    1.19642570506237    1.75268752445010
H          -0.82169804094598    0.23979635849810    1.94478756937493
H           0.38617660921598    1.50763073095930    0.82750379951604
O          -3.24184839686949    0.05409228102670    0.01378101600102
H          -2.74765712539958   -0.15965103075106    0.83206673941187
H          -3.44480262523083    0.99001820150694    0.05957950831777
N          -0.98989069091335   -0.50663664068489   -1.34369647980061
H          -0.40211695448839    0.37213564600016   -1.13299714319025
H          -0.60270792168196   -1.28069840207135   -0.77196054688716
H          -1.98267605104746   -0.34168149636285   -1.07055133794433
H          -0.82958015913571   -0.69467594740238   -2.33167539571924
