    26
        -50.46438677  Gyration_radius:  2.58844774041 Dipole_moment: 5.904
 S          -0.42065626270127   -1.94918541367594    0.91969929665828
O          -1.27198399908580   -1.19272717936778   -0.00954055244426
O          -0.08065344554543   -1.18718354496276    2.09153475867119
O           0.71544578073469   -2.51902308908227    0.21622631945840
O          -1.29351032849824   -3.17865875723395    1.40196489588784
H          -1.23344105721522   -3.76515559220593    0.65541888103220
H           1.82747135506513   -1.51624510704816   -0.35926601506917
O           2.44568157193676   -0.82817506926838   -0.71947311037476
H           3.24768897176296   -1.29293040818668   -0.96166605740708
O          -1.88171222916689    0.85324904020243    1.63093242520864
H          -1.45373408358921    0.48187959975056    2.40995144893106
H          -1.84686401376330    0.12300361941846    0.98679631730701
O          -1.46737050732390    1.79074627177261   -3.20015319314299
H          -1.52260449885937    2.71330344716337   -2.93890231650835
H          -2.32951694081070    1.39934725975495   -3.04033270341262
O           0.11731923969052    2.33896250464207    0.61894377401918
H           0.85329416867297    1.93045813744993    1.12971689047389
H          -0.69916213205818    2.00273611741893    1.05178929899635
O           1.87678065571511    0.62553421113057    1.64964993888424
H           1.23544489946847   -0.03725492294340    1.96573359793789
H           2.31508492731752    0.21510686646438    0.89150115420367
N           0.18329377543117    0.59729795586700   -1.30855260448654
H          -0.21740760558923    0.92628036614656   -2.19598861943974
H           1.13382638994348    0.21834399927390   -1.40515048696351
H           0.18912158726411    1.40558640189469   -0.58665739169840
H          -0.42183618878821   -0.15529668437658   -0.89417595673133
