    26
        -50.44514620  Gyration_radius:  2.69986954954 Dipole_moment: 6.293
 S          -2.02020741871142   -1.58463923069399   -1.68978301950173
O          -2.95118103214793   -2.59625633430621   -2.00555485869564
O          -1.91194677002767   -1.19600521215926   -0.29710258113387
O          -2.36891609103541   -0.28666238242548   -2.50697633922759
O          -0.62781646511128   -1.98045491104872   -2.19885569137337
H           0.06316200029539   -1.24466493830986   -1.99521955658661
H          -1.98464023034359    0.48983056680428   -2.07896259185264
O           2.07642284368268   -0.98707954431069    0.71582738776995
H           2.42502943719860   -1.87680527907024    0.77331368273325
O           0.05459510574718    2.26133847681029    1.63372245852042
H           0.02343622977839    3.16756807355530    1.94251918130118
H           0.97645542200527    2.10525749766801    1.32172373142674
O          -1.09367351024854    1.26669645051779   -0.59896347965179
H          -0.79353946903086    1.76223160570372    0.19021202431835
H          -1.47437548508378    0.43601361063298   -0.25062008615882
O           2.45959497943209    1.71865290864914    0.57608544140489
H           2.54336780860359    0.76611621830007    0.75067392776572
H           2.45270642452740    1.80929333791363   -0.38034175504884
O           0.95947575787316   -0.11752184237863   -1.56943714588616
H           0.30355553881270    0.53428641073420   -1.23037442757490
H           1.42804618748750   -0.47341134313899   -0.78216281381618
N          -0.18903388815589   -0.80270279475796    2.01177542532311
H          -0.36351790856514   -1.29607207222744    2.87744692361045
H          -0.88783842349512   -1.10200694598427    1.33490543396142
H          -0.32890354500944    0.18815934157734    2.18327963475315
H           1.22974250129874   -0.96116165761827    1.27286907360268
