    26
        -50.44539891  Gyration_radius:  2.61897023615 Dipole_moment: 2.578
 S           1.19751263785753   -1.14228569656479   -0.30100953955868
O           0.76997245426257   -0.15262307597174   -1.24340168400993
O           0.38225949644712   -2.31961015379231   -0.23448829047133
O           1.32805712161616   -0.53252574304292    1.10058146301376
O           2.66324686826835   -1.53297154464035   -0.63035372725571
H           2.94787126062530   -2.07866300704905    0.13648339403279
H           0.48512138173454    0.13238949997564    1.37123112389357
O          -2.49393086145679    0.64976633095277   -0.09559649875936
H          -3.36031961141112    0.49569876547427    0.28356818052181
O           0.29694002199265    3.27936627509601    0.75615217618983
H           0.07323950751134    2.99149540010790   -0.16557082598544
H          -0.20011102365404    4.08260857965183    0.91743131763771
O          -0.58325704387788    2.19480047011652   -1.48570473199887
H          -1.41782773504401    1.83229438113537   -1.15799039855602
H           0.00433053638185    1.42444571751266   -1.56098385120071
O          -0.52764186215731    0.96147876827687    1.68291130549188
H          -1.26229101030099    0.80762005189526    1.03890140871249
H          -0.16660434705750    1.86259518447611    1.46292163114642
O           3.06390502953899   -2.48700907269338    1.78251370225453
H           2.31018501405963   -1.89879131806382    1.94229064238468
H           3.82199072359459   -2.09333238730183    2.22217295527241
N          -1.89619874887214   -1.38920830178646   -1.63474873552371
H          -2.54311913523529   -2.10259208625239   -1.94838545792205
H          -1.44814773067143   -0.99180491305950   -2.45184695019188
H          -2.29118099396486   -0.14631568260637   -0.68328183361507
H          -1.15400194019320   -1.84682643185663   -1.10379676549821
