    26
        -50.44181583  Gyration_radius:  2.4808055979 Dipole_moment: 0.474
 S          -1.72195424649508   -0.57729544451423    1.01388586426097
O          -1.35606588117563   -1.74168923901193    0.26331407923281
O          -3.03187549981818   -0.04976279806898    0.78974972405100
O          -0.68736294774901    0.56574369106236    0.70628073968602
O          -1.46265486799764   -0.80508146235923    2.50112747476220
H          -0.55323414386560   -1.27681308548309    2.51641799633248
H          -1.05109375138820    1.13316921861382   -0.00834288427761
O           2.36670416242483   -0.58874879284197    0.52123038745841
H           3.27053159007920   -0.87894016896900    0.38981738177019
O          -2.32067616626063    1.87554652793181   -0.90331366212261
H          -2.88942209454492    1.21277304451986   -0.46743554645349
H          -2.65850000285334    2.73784750665384   -0.64855956440417
O           1.63436148923434    2.05187148668991    0.13010998636413
H           0.95366085880540    2.12786086944748    0.80161632553943
H           2.01506425490883    1.16601033610417    0.27026137638518
O           0.70196198585484   -2.02114068086546    2.05917168423606
H           1.36583075342593   -1.42236266116643    1.64200013304958
H           0.24920379691537   -2.44802059395835    1.31987096592607
O           0.29784875699780    1.44981099894929   -2.21393607579631
H          -0.60786314554389    1.73753279010294   -2.07192533488745
H           0.82833052691553    1.79614718503410   -1.47074628764757
N           0.90476966836257   -1.27362335375104   -1.52140338208434
H           1.84426900285313   -0.86588732614653   -0.31043030210595
H           0.03731558537614   -1.58783419355766   -1.09445820432092
H           0.70636791094250   -0.37966235572198   -1.97502420543161
H           1.16448240459343   -1.93745148871223   -2.23927865952981
