    26
        -50.46057295  Gyration_radius:  2.75210977714 Dipole_moment: 4.406
 S           0.56278787274158   -0.53765970111534    2.02465123337321
O          -0.40251280723259    0.50723111013897    2.28290784382717
O           1.68888086587665   -0.03303782228832    1.20326356655376
O          -0.02289695952786   -1.70949830671924    1.39982492241813
O           1.17032587979664   -0.95947132026238    3.40110887217332
H           1.92730510039274   -1.52325285967737    3.15092573193600
H          -0.72166244295384   -1.73399845506961   -0.01976460343314
O          -0.98653666905438   -1.67144204154359   -0.97971019137037
H          -0.75320645893186   -2.51746289489875   -1.36488021146613
O          -1.67309721611065    1.82089863695496    0.46066571884138
H          -1.79364513065298    2.70624989139898    0.80741711371949
H          -1.30662738270124    1.28630082640482    1.21416940374841
O          -0.41353440637621    1.50850781959138   -3.33791610608607
H          -1.24679690702890    1.18315706551381   -2.93450822469863
H          -0.64352430050779    1.81765989223102   -4.21380465429591
O           3.30659354784892   -1.88748232640197    2.11383263144049
H           4.12921930015085   -1.48959239480864    2.40746289502725
H           2.85178930125998   -1.21396606087907    1.56684289016268
O          -2.52240597601648    0.52000909959186   -1.91440018744699
H          -2.27009931019538   -0.37839875250580   -1.66122187223906
H          -2.54012810673285    1.02146265936519   -1.08801008022931
N           0.36086436372011    0.67024330853593   -0.91915354167908
H           0.70843361152687    1.08993556072860   -1.78486432444721
H          -0.09931597456559   -0.24133010137519   -1.14236346827092
H           1.06887302086270    0.48076174577023   -0.15710646768137
H          -0.37908283555791    1.28417541133324   -0.51536888983516
