    26
        -50.47150702  Gyration_radius:  2.41382118622 Dipole_moment: 3.776
 S          -0.17451891648727   -1.59599144125874    0.12077612625616
O           0.27452487206782   -2.10599897150509   -1.16232572266282
O          -1.29709000904391   -0.66537689285155   -0.03126684101712
O           0.92094270881491   -0.95559966743905    0.85476799522402
O          -0.67090578301890   -2.80062623293962    0.95671611898244
H          -1.07530358433953   -2.40316012365585    1.76738832025612
H           1.84329890957618    0.08423160415272    0.10275057575144
O           2.36661660515975    0.76958543474697   -0.39995942847087
H           3.26586231555411    0.70346004505389   -0.07561370146702
O          -1.18236878511780    1.33238691052841   -1.80940191847221
H          -1.47443148922830    0.60670834269279   -1.22237595168268
H          -0.77318992136413    1.99004242189346   -1.19886421211120
O          -1.81590076361068   -1.49056788152396    2.93131654954094
H          -1.45870461001187   -0.58188136291103    2.84431129506870
H          -2.74632767922675   -1.43684164220486    2.70114341919921
O           0.24386224384087    2.59835546041321    0.06280998044310
H          -0.13509256637423    2.23507360210464    0.88027459548081
H           1.09360451153803    2.15093522582913   -0.05876788436457
O          -0.68739440950417    0.80905767152965    2.01910429627853
H           0.18135586013553    0.37901430314896    2.02793249082194
H          -1.09964903188343    0.40983517769917    1.21953193232535
N           0.90047269303451   -0.00361297067059   -2.54349082289026
H           1.15926302260450   -0.09920846514159   -3.51885052040630
H           0.01957169124693    0.61850054082900   -2.39775432671495
H           0.65708106057064   -0.94400817306355   -2.09973071098308
H           1.66442106511524    0.39568708450687   -1.97042165439272
