    26
        -50.44514618  Gyration_radius:  2.69979885191 Dipole_moment: 6.289
 S          -2.59605794854310   -1.22216348241678   -1.10172753476067
O          -3.95355933764721   -1.60498602785832   -1.12235963338023
O          -2.24950720458143   -0.05488405019208   -0.31444137825147
O          -2.11319107667213   -0.94807286178270   -2.57339091119259
O          -1.72858759198767   -2.40061659135268   -0.64009954955653
H          -0.73094072157462   -2.14509134042035   -0.63347982351003
H          -1.33166563192089   -0.37977189120038   -2.56679159284176
O           1.08024962427821   -0.91159749595290    1.95082428113162
H           0.82392330450383   -1.50666211199424    2.65549657332459
O          -0.12470439002075    0.72813986750567   -1.61668683700753
H           0.42633332278706    1.44026608031061   -1.23252275837162
H          -0.92066767948461    0.68586658751760   -1.05001986057668
O           1.42957943254893    2.39100863752808   -0.16334249387680
H           2.06710431107117    1.68711385111676    0.10057945899995
H           1.95466248820982    3.12286172553483   -0.48923255515226
O           3.00693598997119    0.30524114659829    0.43556587594051
H           2.50627236142292   -0.12576476342054    1.14856486455098
H           3.03748339953572   -0.33120216870023   -0.28348857589701
O           0.66918495684990   -1.60361459038397   -0.61410178310581
H           0.84331534377093   -1.43157036411028    0.33776790889253
H           0.54201024495916   -0.72300116583868   -1.03649745118630
N          -0.59572211117882    1.09067486262812    1.78482842301758
H           0.42953483026479   -0.13424120107766    1.96456244083516
H          -1.34627385662104    0.73721448740202    1.19508746842659
H          -1.01581317888544    1.51932873193528    2.59909873525849
H          -0.10989889104829    1.81552413861804    1.26580672831199
