    26
        -50.46925231  Gyration_radius:  2.44553698545 Dipole_moment: 5.366
 S           0.36439551405314   -1.48564361353148    0.56667450255423
O          -0.77361519339065   -1.15552069581180   -0.31558552400046
O           0.02598658140001   -1.29885271211311    1.95830673949413
O           1.54557660485914   -0.72378048117067    0.16511067370710
O           0.67358652160973   -2.99516454577065    0.34012558164295
H           0.81026632013109   -3.06017942034889   -0.62940315927847
H           1.77421129918207    0.44940315713963    1.35144074296261
O           1.48306780541863    0.95363062917530    2.14434973929932
H           1.03808879437171    0.25632858271374    2.64928005121135
O          -2.19886654490520    0.14415536181957    1.43196180760344
H          -1.77916533088179   -0.34699123547268    2.15188847995705
H          -1.87641463836898   -0.35495065549051    0.64680956390726
O          -0.31277256766501    2.45953586450476   -1.54430094242195
H          -1.10121993935642    2.57867400165143   -2.07625763980941
H           0.09921803137136    1.61614315995326   -1.85707702744270
O           0.69871240185244   -2.78733168725264   -2.31805568947224
H           0.83329305129912   -1.84217007921016   -2.50320076200065
H          -0.23063515569652   -2.96097370354903   -2.48732488205260
O           0.58997817392358    0.02926961874042   -2.15116423799017
H          -0.10420893915246   -0.37853740478293   -1.57713881685600
H           1.36230288491967   -0.02252167426368   -1.56286973027404
N          -0.59014624910335    2.21056439583077    1.12496774229869
H          -0.45937021412633    2.36485374237911    0.09501772672142
H           0.31088132250916    1.81053090046890    1.54526277170534
H          -0.84539775200384    3.07861189309291    1.58363526907665
H          -1.33775278216421    1.46091660132460    1.26754702955391
