    26
        -50.45839179  Gyration_radius:  2.51345246532 Dipole_moment: 8.435
 S          -0.01832388562565    1.08416542006163   -0.16462977441664
O          -0.01340458047895    0.84241587217823   -1.67068039570542
O           1.22177097737015    0.50730388968495    0.38732681376304
O          -0.03592432323997    2.52840264362136    0.07470131708266
O          -1.17823564668396    0.42646548656613    0.43293806902301
O          -1.46922275429337   -2.15800876357446   -0.23268110306891
H          -0.53071536539588   -2.39621239273463   -0.22846600724047
H          -1.50320903297785   -1.26470838315804    0.15702455246027
O           1.31906849418565   -1.96871981448224   -0.40393243137087
H           1.29904919301488   -1.02447396916265   -0.10634767986980
H           2.07924890937841   -2.37096368821628    0.01872156133150
O          -1.28328067433836    0.94406081557732    2.99404967088563
H          -2.14658123578072    1.32398912257568    3.16661063605126
H          -1.30536858880112    0.65453325775622    2.04666139791993
O           1.06685294266866   -1.61911582631014   -3.12963393260578
H           1.21737820974119   -1.87754119342914   -2.20265333085906
H           1.30405600251436   -0.68957264485191   -3.18064560359787
O          -1.48019470701442   -0.95372704118947   -2.58156652338811
H          -0.73125738395376   -1.39347588739871   -3.03599518550063
H          -1.66681919525642   -1.50832952712023   -1.78135806747941
H          -0.72513803981237    0.13965252826987   -2.02884308388192
N           0.94673908051148    2.18484929966217    2.35104360412254
H           1.44640460066649    1.38730740811373    1.90976086004381
H           1.53978640998558    2.79854633435506    2.89839156517614
H           0.52366514616984    2.61197319354412    1.43410221988863
H           0.12365545745400    1.79118384963812    2.87610086123652
