    26
        -50.45331524  Gyration_radius:  2.58923792589 Dipole_moment: 5.298
 S          -0.12734428390679    0.64413742604707    2.32736033995932
O          -1.14555246481946    0.94379886833579    1.34426357579547
O           1.18614393049765    1.16218944083047    1.96109331875856
O          -0.05479559233738   -0.77358452386685    2.64696498728633
O          -0.54020333198970    1.40287818830580    3.65238390254063
H           0.26342730292971    1.39630420421347    4.16304065700277
H           0.58600998391900   -1.54199556464096    1.44084150049682
O           0.93997942121010   -1.97287260108190    0.61064429067197
H           1.26223221383030   -2.83485361951759    0.87839992806653
O           0.05564988769643    2.76057899167265   -0.32863150517241
H          -0.42641289542232    2.26696757151179    0.35231290617808
H          -0.39151289131692    2.56964594517468   -1.15767722669475
O          -1.51464513077859   -1.03262448679438   -0.38974320429706
H          -0.76753288257959   -1.57737920879544   -0.09961134230194
H          -1.59492358374980   -0.34603482096261    0.30328722708435
O          -0.32934378368688    0.62138863286642   -2.18469728200572
H          -0.31186962956718   -0.01390350723287   -2.91212326417717
H          -0.93156751608187    0.20590023988372   -1.53169339008599
O          -1.19418008163922   -1.86724434425836   -3.09448658409207
H          -1.92347725921422   -2.26062442705836   -3.57448043370986
H          -1.48851748867080   -1.76998653905305   -2.17687998242559
N           1.70936229340041    0.40372748351131   -0.46562253257428
H           1.63538605830601   -0.60532735810767   -0.24119157138588
H           0.96717341207198    0.65342695093546   -1.17850637107531
H           1.50382092325448    0.90820922064928    0.45517796385776
H           2.63269338865106    0.65727782741655   -0.80042591769714
