    26
        -50.47191541  Gyration_radius:  2.41609578832 Dipole_moment: 3.507
 S          -0.85976230806620    1.70683176448976    0.23214023299862
O          -1.67804649144473    1.60791148121855    1.41461230981398
O          -1.38822296275660    0.95460168660233   -0.89848962304930
O           0.54105935932299    1.37625865065173    0.46795790972405
O          -0.87894054342560    3.23163518627802   -0.18709392265093
H          -1.72899398240449    3.47598127804468    0.15961205865256
H           0.97257054257023    0.31284914712659    1.61538348801693
O           1.26499014222111   -0.42484039877114    2.20840422649808
H           1.91590204647546   -0.04555995086247    2.80042227983055
O          -1.32965939493000   -1.63689843067363   -0.32617919370917
H          -1.56485918746297   -1.57342260301205    0.63053467339386
H          -1.45155987965689   -0.72005171154160   -0.65005127705463
O          -0.04595831800182    0.54751869509977   -3.14531984477662
H          -0.54987489641661   -0.12535575599693   -3.60581467934573
H          -0.58591545592820    0.80167866893658   -2.36679417438981
O          -1.52405192980346   -0.93945593369471    2.21570584284854
H          -0.60861049111501   -0.93190519545380    2.52321097842465
H          -1.73461971878047   -0.00345620740051    2.02892993476799
O           2.01916522530156    0.25326581275979   -1.46100611803037
H           1.44063057649160    0.35774590003949   -2.24396978542497
H           1.62079800840202    0.84467070122571   -0.79140229942227
N           1.25016568500598   -1.84684605182861   -0.12624661316559
H           1.66401536710428   -2.75213666014701   -0.31493007934380
H           1.41338834740619   -1.54607456394657    0.84986714178039
H           1.65074559421562   -1.07192021831964   -0.75832117876595
H           0.17564466566209   -1.85302531082613   -0.27116227762178
