    26
        -50.46436554  Gyration_radius:  2.43289709508 Dipole_moment: 5.445
 S           1.61434721499673   -0.04178736178811    0.28933496943233
O           1.11823959167781   -1.17571290967767    1.03262140368335
O           1.17347660602899    1.23873350848638    0.83366714057069
O           1.25150625016819   -0.13726679875961   -1.13362230125597
O           3.17412018631011   -0.08608140936701    0.37195272728218
H           3.44979070900656    0.68235054502253   -0.16514987342056
H           0.27679775964924   -1.41414504674008   -1.50261027552278
O          -0.32058121435628   -2.19125322847845   -1.62917913638554
H           0.26541592384159   -2.94443800873894   -1.72179201590467
O           2.90495959538271    1.99959459974793   -1.23444585002044
H           2.40013374396977    2.49302629584370   -0.57904217680351
H           2.28586066071802    1.34910512715547   -1.60105477460059
O          -0.79246501302775    1.68819421950368   -0.87708062104821
H          -0.13005614414318    1.71336843691110   -0.15638735847485
H          -0.39111390158807    1.09222227010248   -1.52055230227269
O          -0.95839548441074    0.48653153451849    2.39405354804029
H          -1.59642678883548    1.17377641056873    2.18940543770077
H          -0.11463771392496    0.77323454120231    2.01229805811478
O          -2.89432694861573    0.44865786429212    0.12932568991321
H          -3.53559026813872    0.36654509476877   -0.57797141445699
H          -2.15501805920677    1.00170907896709   -0.23114428286312
N          -1.43189183250827   -1.72213377546311    0.74556505974210
H          -1.84810805273993   -2.42008977350354    1.35188114637098
H          -1.19760330776023   -2.08388091682539   -0.21124675078978
H          -2.05127208812759   -0.87501262371854    0.66120479515961
H          -0.49716141435900   -1.41524767403358    1.12996915781146
