    26
        -50.44552014  Gyration_radius:  2.52370603956 Dipole_moment: 7.075
 S          -2.28266002437144   -1.03045630239889    0.91353697928061
O          -2.05544910797282    0.36764252764196    0.61508120798708
O          -3.56245294499273   -1.55035847788194    0.63044434329614
O          -1.95197665155412   -1.23009989646728    2.43788145918326
O          -1.21410652424961   -1.86405968720726    0.19263820537826
H          -0.26506857301029   -1.69788831625253    0.60855231906953
H          -1.27207607920856   -0.60637846204519    2.70885345905699
O           2.27528520566166   -0.35031281454783   -0.94928711111713
H           3.02163154293315   -0.75190321606595   -1.39438125840957
O           0.01302172572188    0.94018915675155    2.11368717004898
H          -0.79508601599856    0.93862125609467    1.55979220114138
H           0.61584684171570    1.54962074819898    1.65885118236144
O          -0.84573883305051    1.83082371886966   -1.39769058751572
H          -1.46986692687257    1.44536891747267   -0.76645166201342
H          -0.07412013560864    2.09023399403188   -0.87389605499721
O           1.57208044625052    2.05720406800245    0.12115436660181
H           1.90781095241446    1.22743898486505   -0.27196399435485
H           2.20930036594215    2.74175535939568   -0.08577678404471
O           1.00799291163514   -1.33428061849071    1.20081853867173
H           0.78898825174294   -0.49883889997121    1.67839988132942
H           1.58254460632301   -1.06365500030229    0.45143205302325
N           0.09454104733119   -0.68413793188927   -2.31085054736051
H           0.06527173087621   -0.93111057628713   -3.29140991662740
H          -0.33136218580947    0.24251205071797   -2.20298094449222
H          -0.48893963150461   -1.33897427194588   -1.80080727860218
H           1.45458802575327   -0.49895630047619   -1.54562722670761
