    26
        -50.47272819  Gyration_radius:  2.40553456662 Dipole_moment: 1.459
 S          -1.35709219990180    0.73514749763790    0.84921593780219
O          -0.59872134950111    1.75684817044794    0.14255623715869
O          -2.76555846191199    0.75096969605222    0.55487873364150
O          -1.22586434526305    1.10889626464074    2.40338183336603
O          -0.73191102831596   -0.56941221226770    0.74606689010711
H           0.49837179819292   -0.48815511601522    1.83581309896644
H          -1.90083213281640    1.77138510960014    2.50559189088483
O           1.31537758049333   -0.40425492615767    2.37635571067699
H           1.03141283691630   -0.00362628988480    3.19949615595098
O           1.12204551308974   -2.42001737916617    0.10558846990309
H           0.24642273825832   -2.01649256302528    0.23186797064642
H           1.57781000365686   -2.27489687711986    0.94138583638011
O          -2.69736078353672   -0.75743431342289   -1.62376910537909
H          -3.51213242609688   -0.57842306061901   -2.09816947351899
H          -2.77689722033264   -0.29502865349578   -0.76478701095064
O          -0.48284169570600    0.60999863799760   -2.27381699616605
H          -1.24558989589727   -0.00033172225948   -2.19518053763878
H          -0.55761497955168    1.19486812825592   -1.49577890260580
O           2.02491817563098    1.35479295680380    0.43320626974605
H           2.00120872917260    0.78286889030811    1.22488729144076
H           1.10442018610892    1.67673442085272    0.33340630329616
N           1.81221988555074   -0.40137469416939   -1.50921515616341
H           0.89305626813556   -0.07029289153809   -1.94375827599969
H           2.05597773666491    0.33866277803568   -0.77845739863340
H           1.63016630692501   -1.29867151141795   -0.99296786435654
H           2.53900875982858   -0.50276034013193   -2.20779789843668
