    26
        -50.46791726  Gyration_radius:  2.5391616022 Dipole_moment: 4.992
 S           0.89009612238373    0.75453549744718   -0.30174714265067
O           1.30689005756387    0.53645872259891    1.08217472633986
O           0.12246637541050    1.97722690905004   -0.46534577624776
O           0.12104877166020   -0.39236401071493   -0.80258033163905
O           2.20322233390174    0.84219366736176   -1.11543042183079
H           1.99209134639948    0.93473261786952   -2.08684131233937
H          -2.36688537761753    0.39634984104198   -0.29396282889072
O          -2.19020293554156    1.07243363503644    0.36602191994909
H          -1.38744058806247    1.54994779159137    0.04381300140173
O           1.20514256638941   -2.18298052450450    0.79880437417220
H           0.73686792050358   -1.74880406412246    0.05838705380765
H           1.72836609638454   -1.45771506219485    1.16373914848191
O          -0.70528129232536   -2.49328811403502    2.58534890013921
H          -0.01721840197289   -2.50982231541236    1.86704281397284
H          -0.36414768347421   -3.04038854449324    3.29409092197027
O           1.49814273220558    0.90899754330016   -3.61994834389039
H           1.67299515346193    0.04778675381343   -4.00542677984367
H           0.51780431000939    0.97024742256077   -3.50514910129435
O          -1.01102907357610    0.93619978088216   -2.77828858983493
H          -0.70532606713837    0.30475868322041   -2.09325428765523
H          -1.00998355433262    1.79035274449778   -2.33149291529196
N          -0.86180157242401    0.16200334256960    2.46022434762934
H          -0.92320501739391   -0.87602353626596    2.62136473635323
H          -0.97074895480794    0.68622109226385    3.32159246734755
H           0.08389523105997    0.35936652171577    2.00367648824701
H          -1.56575850860834    0.47157359491518    1.73318694159208
