    26
        -50.47771705  Gyration_radius:  2.36993594031 Dipole_moment: 4.705
 S          -1.06244023627846    0.48626841850084    0.89736353288375
O          -1.95297467491740   -0.65028829371631    0.96651003069962
O          -0.97753084959481    1.03752490341777   -0.45703786278850
O           0.27736864512998    0.13295107962657    1.38563096290638
O          -1.61087998492571    1.59855566074346    1.83123244100853
H          -1.04337371446610    2.37207047833508    1.60767517150980
H           0.33122731672402   -1.52597840247272    1.43314553349355
O           0.15773640217727   -2.47454147411928    1.23607948545244
H          -0.78741105896872   -2.56090094837893    1.40181353169439
O           1.30509832776654    0.32303425849452   -1.57875619395039
H           0.44137004787682    0.66777291420144   -1.25970439815623
H           1.95332052003198    0.71309899246159   -0.97494497909836
O           2.31600751434164    1.59223725933442    0.71481939817974
H           3.00583421041878    1.53922849482844    1.37756144853458
H           1.57997029394204    1.01293324113514    1.03298292803305
O          -2.11981740240622   -1.24193553506715   -1.58434863595304
H          -2.23345019209549   -1.11569675139026   -0.61410879044614
H          -2.03563236738603   -0.34111427670788   -1.91462311382282
O           0.06523891054553    3.24544598958767    0.66021087096624
H           0.98584938597919    2.94138797279173    0.72418003291126
H          -0.30664459613521    2.75958677783996   -0.09142244113510
N           0.36107376779990   -2.12916868054602   -1.37671916697551
H          -0.65070072820832   -1.88744333916129   -1.59858041237069
H           0.90680332871448   -1.22642789134246   -1.49463817303314
H           0.37774985203784   -2.40151642043179   -0.35001872909455
H           0.71620726189718   -2.86708441793260   -1.97430246146278
