    26
        -50.44620095  Gyration_radius:  2.53706438588 Dipole_moment: 5.829
 S          -1.27046869644464   -2.07965191436324   -0.57453807680700
O          -2.05967818689418   -0.87801120696299   -0.70975448843864
O          -1.66899612775145   -3.20026598912846   -1.33919268029461
O          -1.17978422885404   -2.48124289122071    0.90933210336903
O           0.21653139733663   -1.68340392983675   -0.88177883736514
H           0.15110472598992   -0.92968080681863   -1.55779725668237
H          -0.78193120334635   -1.74393171320118    1.46809304737012
O           0.22070649228819    2.40026560549594   -0.84870971202999
H           0.01419435368638    3.32226170247692   -1.00449080936495
O          -0.31924813851194    0.26632844317941   -2.41127096756121
H          -0.06620850318917    1.09489847834759   -1.94987018573237
H          -1.23847095221533    0.09832129021256   -2.15506509638558
O           2.66194003188930    1.25403028620063   -0.46298823332626
H           1.81955859438983    1.73872585676027   -0.54347373061881
H           2.92502781149134    1.02099897616168   -1.35506067131822
O           0.00516409377849   -0.72641127334170    2.38534202290449
H           0.89073106806287   -0.74744128083635    1.90709790942350
H           0.15085787091978   -1.16595824702446    3.22567009257172
O           2.16289527272789   -0.96554668527004    0.98525134803985
H           2.45191201972377   -0.12275915726593    0.57511747890991
H           1.74680058759050   -1.46679404724913    0.27119058278592
N          -1.43923529718290    1.39630311833959    0.89440518464886
H          -0.93883947213529    0.95934835723834    1.66152609265160
H          -1.84296309661251    0.63511173183462    0.34670717233569
H          -2.20205113284527    1.93355558614166    1.28641664360596
H          -0.40954926387980    2.07094971019330   -0.12215893271666
