    26
        -50.45898234  Gyration_radius:  2.46469755211 Dipole_moment: 5.405
 S          -1.05090390413100   -1.77485425367763   -0.03752789933346
O          -1.62388126912249   -2.43789451700747    1.10491340948225
O          -1.42414740151629   -2.26048767263375   -1.33404344470169
O           0.55922493000591   -2.08463680464641    0.04841035596385
O          -1.10091408834783   -0.32026028532701    0.08503857734762
H          -1.05563614282159    0.07937545831705   -1.50066211964031
H           0.63045740810756   -2.82609746291445   -0.54486457496805
O          -0.98662453711395    0.26830215189352   -2.46173661812994
H          -1.24001445785465   -0.56899827656877   -2.86193272293079
O          -1.57035516046612    2.26503053334513    0.34665647289009
H          -1.72669148309037    1.30479010242015    0.28778962596927
H          -1.46690664484921    2.55643622396653   -0.56233231754315
O           1.59691964634693    0.89473394212150   -2.52680162800175
H           1.68770341968248    1.72633565179845   -2.99284970832240
H           0.64311975834821    0.64651463500550   -2.58114743030547
O          -0.19792849767083   -1.02420131454924    2.75493097741903
H           0.56987719773785   -1.59895476194294    2.79222135334008
H          -0.84365769985961   -1.50212228245072    2.17941488866653
O           2.14288106931155    0.21464493234509    0.00567120007550
H           1.69409257480441   -0.64507114268088    0.02313750787581
H           2.05393094689634    0.52252819537009   -0.92173324244989
N           0.54898601466142    1.34158583724575    1.75599560470787
H           1.25217337201703    1.00274380333920    1.02559600536616
H           0.98397013566629    1.92269742113051    2.46411376183543
H          -0.23017964708160    1.84106107531646    1.26982654351119
H           0.15450448032113    0.45679879077805    2.18191542186984
