    26
        -50.46036253  Gyration_radius:  2.4720129283 Dipole_moment: 2.219
 S          -1.40601736943185   -0.38092226814692    0.14536681368178
O          -0.89644733189892    0.83751236976252    0.74472378926168
O          -0.51838986650124   -1.50843924558872    0.35267903025629
O          -1.68146766481487   -0.17487867468383   -1.29128756648360
O          -2.76079948588039   -0.74170685457746    0.82322372278565
H          -3.37854678113521   -0.06758415837108    0.47281819611131
H          -0.42708870862116    0.10009616612792   -2.07567503265247
O           1.14505528627855    1.85044201415181   -0.53975531631119
H           0.35481657996118    1.62683597665802    0.01180902366017
O          -3.98455085540412    0.98417236246921   -0.74897859273521
H          -4.69415252931955    0.64467294023757   -1.29938648608472
H          -3.14769702618556    0.74365602545385   -1.19164612054367
O           0.53564534482566    0.29158919461385   -2.38205616469221
H           1.07559412673434   -0.54308797298245   -2.02629184418457
H           0.84288970716690    1.07258961100926   -1.71777708958427
O           1.66198572174123   -1.57264414668241   -1.14824841992307
H           2.27762526786405   -1.08747211556908   -0.56545406465621
H           0.87437233706878   -1.75975308548679   -0.59058993593857
O           2.89349948901470    0.11198711938097    0.61347915218684
H           2.26493974536105   -0.10347600934041    1.37356232779896
H           3.77140911077145    0.19449220725818    0.98687984253433
N           1.08030986496876   -0.42859159514004    2.43151759791391
H           0.47949723282332   -0.99384329368167    1.83028669617151
H           1.18107285319564   -0.90863552523372    3.31727066305320
H           1.89407360867214    1.38464099090195   -0.11808702225730
H           0.56237133273286    0.42834798749281    2.59161682065100
