    26
        -50.45602565  Gyration_radius:  2.61269152575 Dipole_moment: 5.387
 S          -1.88258949776786   -1.75707957181673    0.30731703250711
O          -2.31411136081362   -1.34655302217804   -1.03425286790147
O          -1.40707033279218   -0.63246518911289    1.07143330952548
O          -0.94440561874238   -2.86714740590748    0.24937841845254
O          -3.17939890484669   -2.31015308272645    1.03945137982187
H          -3.36870645430848   -3.12128177978567    0.57609562897148
H           0.39870148065659   -2.21163984305580   -0.25460657883138
O           1.17442946786962   -1.75490239578971   -0.68556182371999
H           1.62816605885319   -2.43223725232672   -1.19022826591018
O          -0.49341928114048    2.35935506514899    0.29429393135365
H          -0.14452707379270    1.89234305818231    1.13158934336599
H          -1.40186361484090    2.58389762112325    0.49963003219680
O           1.94549963477414    2.25303697368710   -1.01462897896948
H           2.58962816875761    2.94549539210859   -0.85999740707043
H           1.13403535653690    2.52530400376325   -0.55901317649845
O           0.35845866361733    0.98858825771432    2.27588468063373
H          -0.28141610182756    0.27903885196488    2.09284698428862
H           1.21907225393730    0.66261408520670    1.93256701998130
O           2.47597383309233    0.18705424693704    0.81378586889572
H           2.12721615871851   -0.62355788924490    0.41460124953540
H           2.43238610068583    0.86266535822519    0.11739542275954
N          -0.40727749981133    0.32129102574429   -1.46441288295227
H           0.37996394746984   -0.31396912055775   -1.22715531440671
H          -1.28629950446590   -0.29349552355739   -1.37876204907089
H          -0.46633455731491    1.09809337552760   -0.75143187638697
H          -0.28611130250471    0.70570478072729   -2.39621907057317
