    26
        -50.46869638  Gyration_radius:  2.536390955 Dipole_moment: 4.042
 S          -0.19811090358174   -0.08586380131075   -0.92147208322569
O           1.02633930237563    0.29305258398163   -1.82235271810566
O           0.09064919862993   -1.44397625228699   -0.48123453205946
O          -0.17124335650395    0.85099963824509    0.21409220337605
O          -1.41683286906562    0.03993032231907   -1.68167345103009
O          -2.20574915506184   -1.49043417129824    0.84617997820843
H          -1.43436600931995   -1.59924932065994    0.25973446680885
H          -2.74484882955647   -0.81463940491297    0.43146067501994
O           2.63983820430533   -1.34953130665555    0.09575459240683
H           2.99154024435643   -0.76208550888112   -0.57740885062437
H           1.73383773862325   -1.56905722394323   -0.22059278049817
O          -0.58365977682988   -1.98488166492158    2.92200608432324
H          -1.30642461405338   -1.73940039459990    2.30557758901406
H          -0.37251559635231   -2.89598797179467    2.70665723052136
O          -1.71387622009954    2.62017565364415   -1.23553508150067
H          -1.86159870316372    1.68567401615576   -1.48807681370336
H          -1.28468274017149    2.54875933083489   -0.37529510568917
O           0.34498163293544    2.56013919497422   -2.88283069984653
H           0.83936496610642    1.17725740564201   -2.24995286481315
H          -0.02828265466826    2.38176698446864   -3.74889094496330
H          -0.42475501946874    2.77124666895926   -2.29354772990589
N           1.23868193906985   -0.23198971936464    2.07147866435910
H           1.97412549075602   -0.69909787276095    1.48772210849818
H           1.63325017919554    0.38007656444449    2.77693975137121
H           0.63812702319915    0.31029123213005    1.36229581966614
H           0.59621050831204   -0.95317496243425    2.49896449239154
