    26
        -50.46983896  Gyration_radius:  2.5117876364 Dipole_moment: 2.845
 S          -1.99492034090791    0.13995775670589    0.87737886911609
O          -1.29068870908793    1.12465762761385    0.07182925732105
O          -1.19074659735220   -0.31026697549581    2.00883201309388
O          -2.51962898545763   -0.96315681635017    0.10417802663118
O          -3.24192547458844    0.90315231608113    1.48669020121679
H          -3.78745301552391    0.19136349735519    1.80553426331195
H          -0.85122128691652    1.22014459858292   -2.93549674272172
O          -0.55188831968963   -1.93314386897794   -1.37661506988775
H          -1.39347398677170   -1.73118470791376   -0.91372005298532
O          -0.37825258896068    0.65341560321756   -2.32410968794474
H          -0.73634084066302    0.86513345948252   -1.42693930903338
H          -0.41144941374739   -1.17004002487885   -1.95825833769805
O           0.61923732214814    1.82552043360393    1.81195380575103
H           0.25106897780372    1.28373925973980    2.51672355098017
H          -0.04880261374614    1.77088375244795    1.10450355880490
O           2.54734416467507    0.34569624357204    0.68028032081936
H           2.00299286525994    1.02964535670677    1.13177462773960
H           2.58672072841815    0.61896295145251   -0.25816909249323
O           2.31758032053813    0.85364767711743   -1.96930392131928
H           1.35242090560893    0.84846773316725   -2.11845132497505
H           2.69567146270584    0.23699009806353   -2.59752673731521
N           0.81723138985774   -1.58260064471090    0.86015533522048
H           0.04108280224109   -1.14409390483960    1.41987431440496
H           0.40277713152961   -1.81299842606606   -0.08752764511979
H           1.60520329201733   -0.84337997337796    0.76731179388204
H           1.15746079053646   -2.42051302225755    1.31909799306443
