    26
        -50.45098404  Gyration_radius:  2.76467699613 Dipole_moment: 3.678
 S          -0.61251997345817   -2.44398831967241   -0.53158614244072
O          -1.23236354527119   -1.62333058078712    0.49000400463038
O           0.70400791209335   -2.94056773195534   -0.14405425696032
O          -0.58242729934618   -1.78252262588355   -1.82746450907300
O          -1.52506854824005   -3.73008857076446   -0.69276997279005
H          -2.39497799816389   -3.35266166316249   -0.78104976339358
H           0.51236932381640   -0.70406004160140   -2.13498275997069
O           1.27701790899071   -0.07356332538646   -2.27282316701977
H           1.54964928245781   -0.19235299518433   -3.18370534960623
O           0.43650551181958    2.04540260441066   -0.59348312099072
H           0.41261322103033    1.43456857223125    0.17087450033032
H           0.56467138174154    1.48402344020225   -1.36735982034279
O          -1.75216526148666    3.28701857211282    0.36411140247217
H          -1.00916685116184    2.86665008581077   -0.12097499078142
H          -1.50489713769458    4.20609297611825    0.47583674843170
O          -1.54892127730203    1.79587468235168    2.61208645033690
H          -2.31009194915060    1.21259418159319    2.62590968960879
H          -1.68217640338862    2.38942021930537    1.83938355995793
O           0.30574290386782    0.26593444272357    1.46058856550865
H          -0.31140247006973   -0.43700386978608    1.14779190217605
H          -0.23957781400536    0.83119336162650    2.05457576530910
N           2.23042125013709   -0.89755274203963    0.09005284343054
H           3.20537724578223   -1.02079499608921    0.33942142430051
H           1.69052676882067   -1.83462037108273    0.03573619584973
H           1.71164472441414   -0.32764260670889    0.79373605714901
H           2.10520910377566   -0.45802268838637   -0.84985524613717
