    26
        -50.47100367  Gyration_radius:  2.45434450542 Dipole_moment: 1.262
 S          -0.91604341008086   -1.67902236424870   -0.78089157019083
O          -1.78535485473231   -0.76346704695334   -0.06640164988941
O           0.49011039042539   -1.28750843781716   -0.60788814646306
O          -1.28430216884862   -1.93569045030472   -2.14157077391878
O          -1.05409939800121   -3.08639484969934   -0.02491131992781
H          -1.29456820152523   -3.68349934391186   -0.72671966931788
H          -0.61046515732209   -0.08171886810645   -3.18323246633445
O           0.12248911621500    0.35373272317300   -2.73908805090163
H           0.39883236233396   -0.29000700912226   -2.06871094019249
O           2.16063489505194    0.69207455612591    0.16044870226524
H           3.04920717397186    0.39517766926972   -0.04063172899774
H           1.56738259778126   -0.03837114342690   -0.10776262950458
O           0.73235848146451    0.98652311899960    2.52415972872032
H           1.46686346985507    1.03284670142638    1.89134799874609
H           0.53120770394015    0.03071630322030    2.58915796166540
O           0.16296882880400   -1.59669135593263    2.04639190581357
H           0.33720528973632   -1.57198530458995    1.09020851705566
H          -0.65737271879240   -2.08440696867713    2.13613971942487
O           0.48612892344693    2.48737177681502   -1.14330594603178
H           0.29485523521589    1.88345659901307   -1.88801852382807
H           1.28556031300897    2.11709758010509   -0.73527333619315
N          -1.11882747979230    1.64233064312968    0.77031156017719
H          -0.56501308520508    2.09498643385427   -0.01864660162404
H          -0.44640762713153    1.47279826174852    1.58037831773993
H          -1.90878847632273    2.21246267859039    1.04922913727763
H          -1.44456220347519    0.69718806732534    0.43527981442306
