    26
        -50.44181165  Gyration_radius:  2.64938079436 Dipole_moment: 2.017
 S          -1.25356303910820    0.18890722368296   -0.96578464177567
O          -0.60162604730524    1.33269957702964   -1.56205688114626
O          -2.17198401255491    0.48193740514560    0.08195303973041
O          -0.12273672232463   -0.74106063818564   -0.45316316549668
O          -1.94695148536303   -0.66046194139785   -2.03133830491158
H          -1.26998707683652   -0.96722325077596   -2.72153241723805
H           0.58461889185678   -0.06191598065984   -0.05640325407610
O           1.38739055221585    0.98331770410049    0.49800895640344
H           1.30675404769555    1.69860790107651   -0.13981874585992
O          -0.17753883497908   -1.29397648290553   -3.76726123561513
H           0.58612884872070   -0.72465541507244   -3.49757039716753
H          -0.45042051911529   -0.99094035895506   -4.63631966459508
O           1.55072388907407    0.44785138742649   -2.80113581296383
H           0.79336747550639    0.92352630671403   -2.39473615715971
H           2.10382136041130    0.14029337785350   -2.07939172576331
O           1.07323536098656   -1.80647709307046    1.91012780725121
H           0.51696863098602   -1.78961863568413    1.12213654690987
H           1.73495408709731   -1.12167652716518    1.78038194046270
O          -0.46462480841634   -0.76415724724340    3.92246325955853
H           0.13307790601735   -1.24694040347307    3.31949833651113
H          -1.26346309662545   -1.28983864127563    3.98513434250238
N          -0.45781514546525    1.49343294833715    2.16352205222290
H          -1.25393716004601    1.27671573364041    1.56491620316074
H           0.70909307196559    1.24387462893887    1.27732823664097
H          -0.58008423433863    2.42266515600017    2.54320135151960
H          -0.46540192005672    0.82511326589428    2.93784033091137
