    26
        -50.47250307  Gyration_radius:  2.4873425281 Dipole_moment: 2.876
 S          -0.86066231562279   -2.00630547723791    0.61515116523106
O          -1.16313538138459   -2.13185536365459   -0.80538416122483
O          -1.11263343915834   -0.66520891200764    1.10680473336514
O           0.46531962986557   -2.49963166618739    0.93496631363262
O          -1.87795963866340   -2.95276257623466    1.37608694426457
H          -1.55288703530514   -3.81044732492488    1.12475187361994
H           3.12947064820455   -1.40175907979102    0.04618192955544
O           2.32960965696062   -0.88594148713004    0.15809187664774
H           1.62372337100255   -1.53117226973159    0.42578621575918
O           0.50266691017914    2.67902364708642    0.39982315627235
H           0.77170228636653    3.51437210342303    0.78234016560610
H           0.70427680331546    1.97636155336407    1.08407494786500
O          -2.00840714688035    1.62105866601533   -0.01448986603294
H          -1.22737814552624    2.17803794870081    0.15840159498000
H          -1.89399800905024    0.84546124754815    0.56534354359853
O           1.42818251332789    1.01292280569107   -1.58855118616765
H           1.83189633554469    0.32101385578360   -1.03108926311401
H           1.20934781175375    1.73949471863899   -0.97752671247152
O           0.99584792914765    0.69890202913015    2.01864324508639
H           1.70034715380566    0.20820236599969    1.57054209321999
H           0.18997265564424    0.16718721446182    1.86069906724188
N          -1.04631352954357    0.18531515607623   -1.99422432116634
H          -0.02687781892664    0.48367179737598   -1.97576116180171
H          -1.42997615402501    0.21220574881096   -2.93174456411238
H          -1.11564157620503   -0.78995677117750   -1.58185482370752
H          -1.56649352481707    0.83181004997938   -1.32706280615206
