    26
        -50.46272989  Gyration_radius:  2.49970697163 Dipole_moment: 5.417
 S          -2.14348530171134   -0.60300822414578    0.23244389220325
O          -3.03466526550777    0.49635657831999    0.41687819591762
O          -1.35637944012311   -0.95639119705758    1.41022015058240
O          -1.20531543046747   -0.38897162541927   -0.90217593890227
O          -2.99311356822435   -1.87276715619909   -0.14753054289098
H          -2.34677744978190   -2.58746158145131   -0.24569199941567
H          -0.89752320734061    1.12475175154561   -0.25311081931310
O          -0.72921240618159    1.97271428547187    0.20742514996901
H          -1.59921718368959    2.19637201163914    0.55429061309954
O           1.54146500526172    1.64838103754153    1.75595468189603
H           0.62929963940556    1.83543954758932    1.46874534521777
H           2.09864797120495    2.03470668519834    1.07126325177704
O           1.65579233752795    2.43013570979319   -1.04180069470099
H           1.67128218206582    3.02431056366440   -1.79313085447589
H           0.74932306300516    2.45082991640814   -0.68451582677101
O          -0.57118049133160   -2.95679205700835   -0.82079866272708
H          -0.39723365827397   -3.33115792216635   -1.68672418508802
H          -0.67949927669154   -1.99509117501465   -0.95287017416903
O           1.45261236713337   -0.30325037684311   -1.42576667920832
H           0.48246011113003   -0.30489740759884   -1.49650194150170
H           1.70313085051370    0.63681543015432   -1.37883056534412
N           1.21820481167617   -0.93268817779761    1.15279897062697
H           1.42245638584555   -0.86167641939650    0.11918749517918
H           1.48274823542276   -0.01196433499104    1.58115621715615
H           0.15439579304238   -1.02642554156450    1.27577132474481
H           1.69178391605821   -1.71827034070486    1.58331360617185
