    26
        -50.46297484  Gyration_radius:  2.592498838 Dipole_moment: 6.138
 S           0.45857903112570   -1.17459764294258    1.02939784521151
O          -0.26622388870328   -1.78177365580008   -0.08620454165280
O          -0.32324384757388   -0.16796977994578    1.70166853625656
O           1.74689130126214   -0.64110850797113    0.55460944015775
O           0.77464819631230   -2.30039513876996    2.05803583453934
H           1.42266898217085   -2.85306552980792    1.58004915292342
H           1.61371240008741    0.60260018475957   -0.44144186275513
O           1.45655822164579    1.32507703479772   -1.10667076830926
H           2.32050365238261    1.58282292050118   -1.43209169392799
O          -3.02607885108117    1.04834850301425   -1.31402653672795
H          -3.78082657686435    0.46057319996862   -1.25330332294551
H          -2.82506485116048    1.32190415734349   -0.36982069439325
O           0.18814538079455    2.50470191502680    1.17420421791151
H           0.62803045917665    2.40063160316597    0.32215325057850
H           0.19116553600038    1.61805522442027    1.56857390838371
O          -2.38340139467312    1.54274265193340    1.14902400327277
H          -1.71888879817494    2.25264657947055    1.17799221677750
H          -1.88292844513141    0.76770626153072    1.45554212643115
O           2.79582304429813   -3.03507962796009    0.50985889548865
H           2.57508248601738   -2.09525119479664    0.34231949363441
H           3.63930491165673   -3.04103701608034    0.96805270023509
N          -0.72269005404427   -0.06299016361306   -1.94425870052188
H           0.04944266452768    0.61707707284438   -1.81593908703930
H          -0.69862752323313   -0.46491579655151   -2.87530213077427
H          -0.57084970579399   -0.82942622175721   -1.19915883853015
H          -1.66173232084737    0.40272295744314   -1.75326344417769
