    26
        -50.45365761  Gyration_radius:  2.46023248075 Dipole_moment: 3.045
 S          -1.71690193069050   -0.78202592686042    1.12248267737731
O          -2.52006940711650   -0.22194847939224    0.07222078076462
O          -0.82652080227474    0.17835767912004    1.76396928850635
O          -0.96463296878763   -1.97001672510157    0.70075928848513
O          -2.70921584910995   -1.28739412011272    2.24542582427291
H          -2.12643547662531   -1.63164772634540    2.91486670869557
H           0.44031436334219   -1.77306673988112    0.30312069821363
O           0.72107448848021    0.09091583553806   -1.83004820188740
H          -0.01550407761974   -0.45482673928259   -2.19462989124422
O          -1.45028116170333   -1.39546205490237   -2.06957664952263
H          -1.96874017921108   -0.91944806059531   -1.38908593299709
H          -1.30003273335360   -2.26529173940698   -1.69054398207589
O           1.38154153184119   -1.46511936578476    0.00207595169030
H           1.17599922535890   -0.81488383353565   -0.83219137828651
H           1.69746799155297   -0.82622496935753    0.76979577902551
O           1.83022674815301    0.28089191639666    1.74728221022090
H           0.87182929370531    0.37307493611603    1.93084214631908
H           2.08300724483981    1.02468055879464    1.16794485271374
O           2.61432055775642    1.80681054401512   -0.39135457074253
H           3.55213331051814    1.77055680949523   -0.58686617552447
H           2.15563420448164    1.37590825278456   -1.12315066457847
N          -0.61409253565726    1.88059677451802   -0.48430956917799
H          -1.52916278763454    1.97540175779680   -0.90671546779092
H           0.22436957828413    0.83574462590408   -1.34602312279576
H          -0.24508725121360    2.80558641926763   -0.30314444024374
H          -0.76124138731563    1.40883037081377    0.40685383057894
