    26
        -50.46017508  Gyration_radius:  2.52010896209 Dipole_moment: 4.702
 S          -1.93494942050849    0.78505132443307    0.99944619687425
O          -1.72157685631647   -0.47911436932576    1.69816960790557
O          -3.18647959921438    0.89183287493270    0.32720916026986
O          -0.79660611090714    1.03246029598818    0.08098525687058
O          -1.82467473813668    1.91178236127792    2.09871135569157
H          -1.00824885484699    1.70708296569410    2.56059205083034
H          -1.44226047423502   -0.02133938079715   -1.06798840432230
O          -1.70311678282040   -0.76388040720539   -1.64848976956440
H          -2.66275469685051   -0.75508504914565   -1.62006094363063
O           2.79075576676310    0.25336554302134   -1.39085755772030
H           3.37352546445717    0.10687357942295   -2.13597926324849
H           1.98181552583408    0.68399916292009   -1.74692125216279
O           0.48557970826785    1.28855612426136   -2.30071808699866
H          -0.06799052636326    0.64911354883973   -2.75816477136973
H           0.04413965533338    1.43685803980356   -1.44851617858010
O           2.05124792393750   -1.17173625530250    0.76505356140609
H           1.79466527076196   -0.44493442555740    1.36536394975007
H           2.41949052213956   -0.72513264512940   -0.02418079932600
O           1.04005965647651    1.11422840230619    1.90378568359697
H           1.65243669318370    1.82512630166019    1.70101592606942
H           0.38971227465192    1.09445051188763    1.16394670048512
N          -0.32825737331068   -2.11826724748302    0.28081493400424
H          -0.43552939186294   -3.10673040492614    0.47909626439323
H          -0.69698807574365   -1.87150003021120   -0.65410475344971
H          -0.90781932515551   -1.52421556639955    0.96108973332845
H           0.69382378454913   -1.79884526458240    0.41070140897101
