    26
        -50.46794263  Gyration_radius:  2.46403137011 Dipole_moment: 2.575
 S           0.48205519671390    1.60150814262093   -0.77741475080390
O          -0.97238675003876    1.52640502127115   -0.74036561655785
O           1.06596490151862    0.31562781183847   -1.12788511332752
O           1.03203627485541    2.18563673115748    0.42421995520194
O           0.86572249236164    2.57405808501273   -1.96645382199866
H           0.75212730883175    3.43483065197241   -1.57686373293156
H           1.82121941212914    0.87420889761922    1.20155643157802
O           2.16168098147267    0.00201905702593    1.47916028248814
H           2.48382017467447   -0.40325112993494    0.67061935294167
O          -0.08487454094937   -1.22930653206052    2.29560571684848
H           0.83357457244012   -0.89750902182618    2.20169279434663
H          -0.62494662443018   -0.41551260813663    2.35834694846176
O           1.29432449032876   -2.24491213659863   -2.24039491298905
H           1.78780063993907   -2.38838276872301   -3.04862652427984
H           1.38217387405790   -1.30452792174870   -2.02842094922358
O          -2.90019337286597   -0.33798127093502   -0.56661802830175
H          -2.34132206791860    0.42484948309144   -0.80855650408796
H          -3.29085526074037   -0.10830673192784    0.28029992461459
O          -1.20934115726727    1.20459389893826    1.89930410332317
H          -0.54351562462083    1.79735784994272    2.25740073276317
H          -1.18528320931167    1.36919242393696    0.93733513553746
N          -0.57288658168571   -1.62628936598506   -0.22909659739977
H          -0.39739926502687   -1.65291923566647    0.83067716194027
H          -1.56778626226842   -1.36178208777568   -0.41279744550223
H           0.02610550973857   -0.85734821458769   -0.60562094912209
H          -0.29781512199324   -2.48225901849804   -0.70710358351992
