    26
        -50.47230217  Gyration_radius:  2.43437165628 Dipole_moment: 1.642
 S          -0.57986965158588   -1.88043414102599   -0.74624939523073
O          -0.28172383458734   -1.40914812050331    0.59794541547115
O           0.58404466829049   -2.32461780638849   -1.47569520262479
O          -1.38658894909533   -0.90975110586696   -1.47079075532240
O          -1.48772423489503   -3.17143171141587   -0.55647981627067
H          -1.20651059012594   -3.70637938621382   -1.29084783087445
H          -0.59057160401088    0.38308238695428   -1.96015391044394
O          -0.04864542500790    1.17381485097116   -2.22303029975484
H          -0.25000047765271    1.33760011246129   -3.14535341341124
O          -2.07492551892422    0.49813254825611    0.89102333413358
H          -1.43159949812664   -0.23909303308638    0.80598347392211
H          -2.66169481699726    0.37650081204162    0.14051315584018
O          -0.39034224362056    2.45572535438724    0.18587979405727
H          -1.10811500947888    1.86891261727635    0.51838300453620
H          -0.28646257664360    2.21088344697837   -0.74987641910887
O           0.32518651392187   -0.41963848702843    2.97459944257277
H          -0.52516554537113   -0.01183392534660    3.16079198161581
H           0.15172264104878   -1.03923428903737    2.24216304726148
O           2.05109411076887   -0.16649991001804   -1.05394335827105
H           1.51125677630518    0.41178903970394   -1.61921181973777
H           1.65041969737564   -1.05371709119808   -1.16172828418026
N           1.62982015772092    1.13147263493817    1.20588054743780
H           1.87239023688517    0.50748360836571    0.37880761857404
H           0.85967112329886    1.78712020127283    0.85468413340678
H           1.22851320493502    0.54428937672495    1.97800388484950
H           2.44582083557035    1.64497198679870    1.51870169155181
