    26
        -50.45807559  Gyration_radius:  2.62457006731 Dipole_moment: 2.500
 S          -1.97051216816713   -1.48166201005023   -0.77192320301540
O          -2.53350674789296   -0.29567508132402   -0.12481759117272
O          -1.46857064145688   -2.45229079878038    0.15487601106567
O          -0.96819161266611   -1.08371838730896   -1.77046562788465
O          -3.15621105594353   -2.15282941378910   -1.58433010391637
H          -3.49323624649855   -1.47178206151658   -2.16121533925891
H           0.41822002328093   -1.45644299941063   -0.98553546051819
O           1.07988605768669   -1.65460930202590   -0.27863160035970
H           0.79778752223751   -2.51044917416525    0.06042004754991
O           2.80612381827211    0.44806891568789   -0.01457969570670
H           2.28222703327187   -0.35793351909578   -0.17094616177767
H           3.67956484515371    0.27949676388221   -0.37003866514228
O          -1.17707367382119    1.56600645390049   -1.71632527770169
H          -0.98784302088325    0.62544712158734   -1.90834265762417
H          -1.97227136937646    1.52631546437647   -1.17354935248515
O           0.64326821974433    2.24051894256917    0.10176251034390
H           1.49452361752567    1.86876350115493   -0.16835283650726
H           0.04023421451092    2.16303766435879   -0.67488495445563
O           1.90436838490141    0.93970586599842    2.64386934398917
H           2.35793393535530    0.75267570605802    1.80868910263214
H           1.92346309780260    1.89321303491907    2.74100651503719
N          -0.35410188348083    0.11986462943714    1.29744094637728
H           0.22829995993174   -0.63613296982327    0.88266020293169
H          -0.28306213958831    0.08795710007546    2.31190978625406
H           0.03963046965489    1.05320428384765    0.94039430223363
H          -1.33095062955969   -0.01074970960187    0.93090973885425
