    26
        -50.44873865  Gyration_radius:  2.50808783162 Dipole_moment: 6.797
 S          -1.88402098797230   -0.63737337876495    0.35628172656248
O          -0.86926233841922    0.10319454197903    1.07886330029757
O          -2.66695354088589   -1.50978612534235    1.16309579430846
O          -1.20592756863869   -1.38660476342571   -0.80600896800348
O          -2.78671061204305    0.36141066361426   -0.39193167309298
H          -2.22577359138163    0.72699951992238   -1.13943551884194
H          -0.37660691040702   -1.95190750831969   -0.44522181606524
O           1.30085060681581    1.66205304570926   -1.40370790511274
H           1.75488109104715    2.36185933434587   -1.87622110529880
O           2.52798786938500   -0.64897051853263   -0.52969774641528
H           2.05675122184959    0.15632022549931   -0.81285248437672
H           3.04922116325440   -0.94288477092856   -1.27884806531321
O          -1.15020273727219    0.93785621148694   -2.29944028469842
H          -0.27381814481288    1.23935029849001   -1.97565767700490
H          -1.04853792139205   -0.00141004082898   -2.48581924802402
O           0.75925698943188   -2.56728694557128    0.13562371874041
H           1.47176756529104   -1.90339868602178   -0.00289401501887
H           0.53532836633538   -2.54369053714768    1.09628861394699
O          -0.27894070033304   -2.07943536269190    2.53253635580694
H          -1.18586107750433   -2.40270407527620    2.49158067641013
H          -0.35069283332241   -1.14695507597795    2.27086220503066
N           0.56604723889040    2.52837263727719    0.95554201784739
H           1.05004129106967    2.03850696752846   -0.49929944529370
H          -0.04248859519802    3.33178799421060    1.04932242192818
H           0.00462572998269    1.69381178561055    1.13507222299181
H           1.26903842625166    2.58088455320300    1.68196691871519
