    26
        -50.46730098  Gyration_radius:  2.48906851599 Dipole_moment: 2.967
 S           1.50988688025270    0.05779794119340   -1.29405134015558
O           2.46792780508733    0.00314554359919   -0.22394673362028
O           1.05874917801090    1.40094785553550   -1.61981971542719
O           0.37650883686967   -0.84939358383888   -1.08842357780715
O           2.25050678666638   -0.48601204093338   -2.59059398305793
H           1.62607628692807   -0.35300946786275   -3.29798562764196
H          -1.10111506579083   -0.19763170070417   -0.68350857125870
O          -1.86545744469045    0.33893673244286   -0.37434858285013
H          -2.03672330040345    0.94290861100306   -1.12008722737863
O           0.13931859492520    1.61231687584867    0.91310724222190
H          -0.73837112377150    1.36631434717164    0.55073013946525
H           0.71908751328980    1.64881357254485    0.13555870957763
O          -1.40011595976579    2.03058605243501   -2.42845716125785
H          -0.46721605191993    1.81653948144994   -2.21276599739625
H          -1.46181830891313    2.98651988198393   -2.39362806219583
O          -2.31758852350213   -1.12599927777869    1.83582771698710
H          -2.51287813249691   -2.00255468845923    1.49960044137638
H          -2.34966779758661   -0.52948289843180    1.06178221862887
O           1.58338414240092   -2.20327022004619    0.82396524690988
H           0.97636432879302   -2.08169550400410    0.07015527125914
H           2.28384591269518   -1.56160332663069    0.59368830108628
N           0.25780218119256   -0.56656004188438    2.39851406133099
H          -0.75385973395776   -0.83466088656376    2.34379457487718
H           0.56692991391633   -0.47010269226511    3.35909309049811
H           0.83323705627233   -1.29662871710770    1.86910370287132
H           0.35518601551868    0.35377814131635    1.87269587296394
