    26
        -50.47201793  Gyration_radius:  2.5172709993 Dipole_moment: 1.456
 S          -1.58452931066813   -1.06842901812150   -0.58596783094713
O          -1.66429485902945    0.15316366291870   -1.35854338981003
O          -0.98446687184664   -0.83580532293805    0.72803334482785
O          -0.94772895006196   -2.17039705648068   -1.27441173253568
O          -3.07880240405136   -1.51414412638375   -0.31722040348226
H          -2.96612114948726   -2.40858761007248   -0.01381367187900
H           0.63606535137860   -1.37439696957341    1.27592768618769
O           1.60354862628189   -1.44901687136875    1.34205911224717
H           1.89574099541262   -1.55876980448349    0.42469847075004
O           0.87119994754709    0.97616165596353   -1.81827399436937
H           1.33816859069810    0.12320656201945   -1.77894351896861
H          -0.06816035326302    0.74610248949889   -1.93161223155027
O          -2.17431967019346    2.43238183711234   -0.02040850965711
H          -2.82124090589680    2.95865789457358   -0.49112237565485
H          -2.08677907014579    1.59782122634883   -0.52340381365692
O           2.23298830098687    0.90856946034782    2.40577966589624
H           2.20191284320033    0.81761723414683    3.35866844331255
H           2.14082272474776   -0.00623453355410    2.04101925407572
O           1.59642832419173   -1.63589056336600   -1.43472352460245
H           0.64215225098037   -1.89446930772079   -1.38957444702979
H           2.00548771391311   -2.23518124108847   -2.06130143647744
N           0.25382941067078    1.51632588787770    0.70439906908081
H          -0.28108296265364    0.62001135310020    0.81833806174211
H          -0.42947144146152    2.27826880622707    0.74318598860341
H           1.00465057207923    1.55220920678883    1.42513950294211
H           0.66400229667038    1.47082514822776   -0.26792772907152
