    26
        -50.45839178  Gyration_radius:  2.51344742104 Dipole_moment: 8.435
 S           0.98517108633716    0.47788106394734   -0.06311190310777
O           0.87313869242385    0.47778633172979   -1.58434014533718
O           0.87929085788202   -0.89149556495043    0.43552678234204
O           2.26231188285277    1.08910123021071    0.30933035812297
O          -0.12482696000123    1.29010138184405    0.46930270880583
O          -2.31785593165975    0.32830094608398   -0.54651032237003
H          -1.48894006601625    0.71064331131811   -0.16278044400514
H          -3.04751264540087    0.79868891835605   -0.14074689485660
O           1.20790487029609   -0.93031256344570    3.02948144957969
H           1.02630107192748   -1.01398276906627    2.05897393235579
H           1.92220539417272   -1.54372744500111    3.21087161819536
O          -1.24457408206450   -2.25688716178356   -0.47683373535220
H          -0.46116672361577   -1.91604063835412   -0.00662797648067
H          -1.87898726875157   -1.52546978171245   -0.46689041584261
O          -1.70204544049277    0.44573339225185   -3.23390289579799
H          -0.97739605014349    1.07496804776189   -3.19078077049007
H          -2.06487277604953    0.40155727323217   -2.33105267107288
O          -0.00274186035406   -1.56923248947403   -2.70237773096175
H           0.59259715903461   -0.44606725859192   -2.02763855648909
H          -0.46868964221175   -2.03775610472478   -1.96341085021253
H          -0.69928047241945   -1.06533768871936   -3.17325851825625
N           1.35497049203454    1.65717843862233    2.57196706278612
H           1.33779404845029    0.71109279158395    3.03318522160637
H           1.59631712041529    2.42242749768640    3.19170007026107
H           1.98982701773937    1.53264086340696    1.68674617466549
H           0.45106023560978    1.77820799778648    2.07317846190317
