    26
        -50.46637064  Gyration_radius:  2.58505008819 Dipole_moment: 2.448
 S          -0.91644250942255    1.40783928129811   -1.39782807247081
O           0.44226522607441    1.78041675097933   -1.70617240486928
O          -1.27542327995489    1.61293301676975   -0.00326495961993
O          -1.23041111181989    0.04522740591617   -1.82620571335433
O          -1.85690828129621    2.37343963823982   -2.23328552483293
H          -2.70856421599244    2.27720382355672   -1.81671059602576
H           0.26114683929761   -0.68154767510871   -1.62021819306129
O           1.15569878654159   -0.93900603256595   -1.30366067020542
H           1.76072583140189   -0.38979614441338   -1.80873885072945
O           0.58319560575476   -1.52949267398093    2.90442620017668
H          -0.25202243136124   -1.61444656364013    3.36703998755460
H           0.54207864616418   -2.17331341622890    2.15386826956198
O           2.16911994190424    2.53632983856542    0.18544012625645
H           2.09770200197372    3.48170652340196    0.32117867081384
H           1.60306592234699    2.33043501680774   -0.58892482964387
O          -2.09460337900687   -1.57470872833992    0.09031285889271
H          -1.81874681196861   -0.92422837545745   -0.59026289658273
H          -2.79211837309237   -2.09598434213095   -0.31034632961418
O           0.22652871101192   -2.85879728989613    0.63941119465607
H           0.77547318993425   -2.53474370054785   -0.08290192504749
H          -0.66331337153484   -2.48613370563274    0.46935830808404
N           0.80383462938607    0.38912997782303    1.05966813906025
H           1.04688485321548   -0.20857683834248    0.23908919373468
H          -0.11586141606915    0.84033096114941    0.83146135136936
H           0.75433769382145   -0.21334224406236    1.91777614920956
H           1.50235730266223    1.14912550583227    1.10949051668108
