    26
        -50.45671053  Gyration_radius:  2.43830833482 Dipole_moment: 2.140
 S          -0.97526740355904   -1.57976357264314    0.45759619051824
O          -1.27756306405819   -0.33134583053433    1.13701508879458
O           0.39073005591091   -1.63732158154262   -0.01940532643638
O          -1.95118339857465   -1.86364575698938   -0.58928101786539
O          -1.12478289287837   -2.73774952621448    1.51705323198094
H          -2.06837430177488   -2.77287744318491    1.63093901896389
H          -1.91487588115667   -0.87693327499851   -1.71340004870228
O           0.83830379298596    2.22786545217511   -0.71209142381980
H           1.41551013392666    2.98211317211302   -0.83169639719158
O          -1.72120702297750   -0.06296865739765   -2.31543258965099
H          -0.66347302931794   -0.07165963885341   -2.41150301635972
H          -1.88968457893625    0.75314554240416   -1.66519077134968
O          -1.81182862162922    1.67329540398148   -0.51919944038137
H          -0.92832341119127    2.08463456691106   -0.59675898202750
H          -1.72926728115305    1.02323606668259    0.21345314784803
O           2.56787152514781   -1.32540915673159    1.55314308205857
H           1.77497174252510   -1.50535433860967    1.01556352815501
H           3.20455539440211   -2.00280673455993    1.32080821309464
O           0.76807108649672   -0.06377358470708   -2.12182229280540
H           0.93121002595873    0.80571491931023   -1.69540858304009
H           0.80216770455648   -0.72233789987289   -1.39569963097752
N           1.10601996147645    1.19864300818661    1.65051431613283
H           0.25297641263751    0.63928722853676    1.66075297031511
H           1.01225678827537    1.86236900870690    0.22831738536659
H           1.11452701125254    1.76454122267571    2.48962766881437
H           1.87665924166303    0.53910141515928    1.71210568856596
