    26
        -50.46651399  Gyration_radius:  2.46616695864 Dipole_moment: 5.706
 S          -0.95001534608174   -2.07787973263571    0.12458082118755
O          -2.29375996918766   -1.71584224880598   -0.27336850354264
O          -0.70829533579461   -1.91039268108060    1.54070184541759
O           0.06597249589305   -1.41949261278546   -0.69489258294191
O          -0.78311676236981   -3.62519400388143   -0.18865365555770
H          -1.44453804084054   -3.98568740941545    0.39100849735913
H          -0.26397579546986   -0.25730753833226   -1.71391221507088
O          -0.40175470177653    0.53232110264698   -2.30728676091924
H          -0.39034914012072    0.18783889137201   -3.20131593363357
O          -2.14834527038688    0.87947879591721   -0.14233352042166
H          -2.32470478665493   -0.08959920696636   -0.08704733557021
H          -1.82825810182713    1.00626372964012   -1.04624708281751
O           1.43487441891476    2.03892300068403   -1.07769847805638
H           0.78732170768061    1.51194547564471   -1.60091316952937
H           1.77005400648426    2.72402512811791   -1.65691159065129
O           1.10008922793355   -0.22145735986020    2.38631008186671
H           1.80152703203091   -0.37405187362882    1.71353698988904
H           0.43620643760313   -0.92952772214269    2.21155836842035
O           2.43878639666114   -0.43035812479404    0.08816163622392
H           1.67305465570415   -0.93624886923576   -0.24503595111411
H           2.36994923762554    0.43734977710491   -0.32824333879939
N          -0.07140415106089    1.75575638779698    1.22995203010041
H          -0.95472150187363    1.37664325921770    0.77154213618662
H           0.40784176293975    0.94418432045702    1.79756496231559
H           0.57105448027815    2.04011273980471    0.47413653652978
H          -0.29349294627831    2.53819677515116    1.83480618312826
