    26
        -50.46094112  Gyration_radius:  2.63220931237 Dipole_moment: 7.541
 S          -0.15086664788098   -0.66388719442523   -0.54219195343261
O          -1.12387831096062   -1.23824256600165   -1.57833718485090
O           0.29973917871092    0.65638074692755   -1.01841008991894
O          -0.83012292909723   -0.55234951522698    0.74021937280686
O           0.98406343483323   -1.58857833148554   -0.47979099662829
O          -3.44620855637774   -0.20967640213385    1.10107668314157
H          -3.75305638292510   -1.05791513993017    1.42547758024164
H          -2.46832696581847   -0.26236098707008    1.08862873894442
O           1.19691420194297   -1.27885784376943    2.26045976223272
H           0.36224243989620   -0.91074750506713    1.90410609973234
H           1.42197389899834   -1.95395552078558    1.61068904201928
O           3.15378499738768    0.47387356561069    2.06260392254395
H           3.85552923778404    0.19017245585820    2.65022053118811
H           2.37574415294933   -0.11289015465508    2.25685705528288
O          -1.63336820358141    2.36661415923204   -1.63195256707719
H          -1.39718321109401    2.67226641546272   -2.50934744858885
H          -0.89101548238897    1.80087257931132   -1.32904717747604
O          -3.20152598197824    0.19273485285901   -1.53640669179734
H          -3.49469158737439    0.09876500310170   -0.60391815297925
H          -2.81184943169990    1.09150496553647   -1.59482902136985
H          -1.99606918580828   -0.68173951820776   -1.59969085469537
N           2.76802291454476    0.21085372758017   -0.54601314633491
H           3.07528442002618    0.41687722294167    0.43900142225687
H           2.27861848031055   -0.74187155794152   -0.55880903389168
H           1.91164219279666    0.77760777760399   -0.78545618423784
H           3.51460332680107    0.30454875467289   -1.22513971711659
