    26
        -50.46618169  Gyration_radius:  2.7192407104 Dipole_moment: 2.662
 S          -1.25412679548894   -2.17228488992429   -0.03646900877958
O          -1.05477214675389   -1.70666611374099    1.32002986831248
O          -0.01678494816857   -2.17675895356333   -0.81220551219413
O          -2.32048714950871   -1.47309837975552   -0.73727000885210
O          -1.71973857318229   -3.68455850688774    0.08344712770814
H          -2.00105436292590   -3.90932517452796   -0.79829820267853
H          -1.54152579059004   -0.51990263635804   -1.89279401267822
O          -0.81745739989749   -0.05221163743193   -2.36375251244534
H          -0.12748394803769   -0.72321733081673   -2.41461728916520
O          -2.37161770699825    0.57520629167007    1.13385363450247
H          -1.94819638183188   -0.25755737304245    1.43142154182572
H          -2.95706661205871    0.27954550288914    0.42773967269376
O           1.60273257621861    3.33322401449958    0.13248854783069
H           1.63631741710301    3.97843609154776    0.83977753722111
H           2.30631375074207    2.67797328165077    0.32102344812975
O           3.27461105476995    1.26843942176160    0.68647986740706
H           3.96234322297585    1.00286846977072    0.07400938874028
H           2.71429063621511    0.48556644813411    0.82414340753232
O           1.40618329714352   -0.76789359349745    0.81873052889694
H           0.89114336705464   -1.03212704542904    1.59178710503009
H           1.05435104929055   -1.37377911648748    0.11958589635841
N          -0.14326893293265    1.27704127233933   -0.15152197603746
H          -0.36171619791906    0.95911267840042   -1.13017763523196
H           0.31959409648385    2.20507295265542   -0.12621690393686
H          -1.03862584007187    1.23557755903440    0.39857937586538
H           0.50604231830524    0.57131674708229    0.26022612362400
