    26
        -50.46965122  Gyration_radius:  2.5083782947 Dipole_moment: 6.997
 S           0.83519441157852   -1.24198679636921    0.35102649919464
O           1.10183404238119   -1.62757660893793    1.71796686129950
O           1.57834531641712   -0.06915177114403   -0.08298660922508
O          -0.60211604295303   -1.06943939460127    0.10023221079860
O           1.29703945898870   -2.40403592623718   -0.59746900494319
H           0.81091442724141   -3.17637684656500   -0.24733417703573
H          -1.01208246905642    0.43142177806977    0.91951324434820
O          -1.05223485638743    1.29895302096277    1.35780639777729
H          -0.29306060441700    1.29489502893764    1.97813546857266
O          -1.45875394348618   -0.43592832393494   -2.27991395767899
H          -2.39990692619014   -0.27705317918558   -2.18706099561753
H          -1.15789153878131   -0.79104200645430   -1.40696138317489
O           1.29844744892125    0.90091647739332    2.61127913632331
H           1.26718298786641   -0.06717730894087    2.51047896748644
H           1.91948869145422    1.19375839377408    1.93905544818915
O          -0.35540848277301   -3.74275381260758    0.97392151158067
H           0.15150034848070   -3.22814005612588    1.62296519168075
H          -1.11157430261807   -3.18810425652332    0.75701876615736
O          -0.68838148293185    3.19838485732159   -0.38546836030659
H          -1.53810490268861    3.62056082593955   -0.51768454387482
H          -0.82273076682679    2.53741871730402    0.35394230819548
N           0.45425579150508    1.38513814500412   -1.92648618961708
H           0.98638790539856    0.81034132397154   -1.19975403478380
H           0.02957014766029    2.20929897224563   -1.41667354884127
H           1.07504695602468    1.67732649916148   -2.67275863461231
H          -0.31296161491282    0.76035222748848   -2.27279059179416
