    26
        -50.46636323  Gyration_radius:  2.37670774835 Dipole_moment: 2.479
 S          -0.42098792338959   -0.18984689149369   -1.85968923834891
O           0.50665184086614    0.70804107328182   -1.19530007429796
O          -1.80842611871225    0.14087379480937   -1.58813237263042
O          -0.12848755158312   -1.59103760133116   -1.61944249048790
O          -0.18822920513691    0.05467877734999   -3.41145934639233
H          -0.78275681591477   -0.55623601711802   -3.83630893553517
H          -0.89942985637871   -1.65451327826200   -0.15664253008431
O          -1.45426838473260   -1.49920724276649    0.63974235612776
H          -2.29338852123329   -1.20638344173441    0.27201790689875
O           1.75516990098415    1.46649128733177    1.11845696045249
H           2.38243482121206    0.75316115932387    1.27198965188346
H           1.45009190361529    1.35619057994215    0.20192689991748
O          -1.68730946227161    2.26447608232695   -0.07173377108065
H          -0.91703926948299    2.70997805782823   -0.43405524354262
H          -1.84710719812898    1.50677503964843   -0.68435011635769
O           1.22275732986960   -1.33626311438623    1.86515195396203
H           0.54639937917747   -2.00833708084472    1.76238333322803
H           1.73405334492495   -1.34822484139079    1.03325114090017
O           2.38046207666985   -1.13573823142655   -0.60601837990788
H           1.79266515752805   -0.42272498339500   -0.91509870382337
H           2.05110937149718   -1.91700783938239   -1.05905035089295
N          -0.69039225435983    0.78249240828908    1.88433877440443
H          -1.18473483198030    1.45662597327000    1.23355939103245
H          -0.88454221979733   -0.18677248282409    1.53058803383801
H           0.34715322832468    0.96988856603444    1.77382564575130
H          -0.98184876153701    0.88262025690235    2.85004947496334
