    26
        -50.45488102  Gyration_radius:  2.47418894296 Dipole_moment: 0.412
 S          -1.35115426975591    0.30957591569425    0.07401762403273
O          -2.30108524742523    1.12108333154532   -0.79577848824266
O          -0.15267028396634    1.06369450762385    0.35013085160882
O          -2.14677562908294    0.10995999890171    1.34961986028391
O          -1.08332814196627   -0.96995600890427   -0.54999466304211
O           0.66759376470156   -2.25752031931389    0.96281867629636
H           0.07507319528220   -1.82073918290467    0.31521563560316
H           0.49700181327359   -3.19884084008268    0.89129742768929
O           0.36977363521546   -0.53881011660177   -2.80500303279263
H          -0.21059730500055   -0.93556860844290   -2.13594578800176
H           1.20963911515696   -0.37668986034000   -2.31039309213423
O           0.83540735217848    1.39200262112594    2.81426560978854
H           0.58895951181284    1.37652504092502    1.86857045265099
H           0.45309659962852    2.19135690295809    3.18027881759542
O          -0.98969600995184    1.64610590193630   -2.87308708990191
H          -1.55635258483939    1.60689490030758   -3.64740898025254
H          -1.78316865489542    1.40527985618059   -1.64590487752439
H          -0.37878457957838    0.84153199854234   -2.92822583540928
O          -0.51980180715310   -0.89086930428916    2.93727449111507
H           0.00657423498288   -1.47972773137840    2.34988088830702
H           0.05638453529155   -0.10995106445379    3.10890960952961
H          -1.51748684963183   -0.34392300930886    2.08533432910231
N           2.23019446222198   -0.09577903931275   -0.91034928088685
H           3.11293984831842    0.39940578079763   -0.90751297341982
H           2.34272132852330   -0.93019561025308   -0.34594725729718
H           1.54554196669745    0.48515392903331   -0.43206290469091
