    26
        -50.46361288  Gyration_radius:  2.49258477257 Dipole_moment: 6.644
 S          -1.52811556325576   -1.18316311579606   -1.34331973840638
O          -1.72661586218157   -2.00762133490976   -0.15011779540737
O          -0.13286137063361   -0.80175194402813   -1.48424338341726
O          -2.45428047084523   -0.07761621888227   -1.40725051429059
O          -1.86145009338234   -2.10930020367126   -2.58736899821948
H          -2.80612070277424   -2.00975504663946   -2.63813014923787
H          -1.89311382629584    1.25698734772387   -0.54721772024543
O          -0.12976005870024    1.19057244961636    1.96720564529890
H          -0.50071546171299    1.69844854879536    2.68967306887883
O           0.78900559522470    1.73106814986567   -1.69230233827598
H           0.46621995808361    0.82281408971476   -1.83381326328904
H           1.48616607383013    1.65104735273415   -1.02610572059619
O           2.28882586019258    1.32809545773551    0.68779484407473
H           1.45877707664861    1.33483340759221    1.20411680470516
H           2.82508906285369    2.05561938273321    1.00491824705319
O          -1.35937623444041    1.95788155754869   -0.11640389279437
H          -0.62629222656061    2.11450565530149   -0.75391389496458
H          -0.65828282531953    1.47989253965780    1.13598702260457
O           2.08670292775147   -1.34148410421102   -0.10722273132932
H           2.41996574734582   -0.44518068636510    0.04975842642993
H           1.40870558332780   -1.24721929832862   -0.80722440340496
N           0.09301857210955   -1.48943236585716    1.58533827052316
H           0.99382542790929   -1.53558656783431    1.01224395681104
H           0.10954441017534   -2.11982552323920    2.37874467334489
H          -0.05132553420943   -0.50215135378856    1.87802821049180
H          -0.69753610514179   -1.75167817546968    0.90082536367020
