    26
        -50.46869647  Gyration_radius:  2.53642834293 Dipole_moment: 4.045
 S           0.02267943200409    0.66815918584890   -0.67111771531745
O           0.87075947919898    1.81284311016135   -0.89294613189184
O           0.76968017049379   -0.44857151190418   -0.06887990598064
O          -1.18195093313270    0.95993054293397    0.09414633617136
O          -0.51502010125350    0.13699823646944   -2.04342193263068
O          -1.01375835350856   -0.12342712593758    3.43201468280096
H          -1.85488898868765    0.33241889106523    3.50852085110544
H          -0.38774579844503    0.55377405483807    3.09702239268821
O           0.31834138993301    1.79479982523366    2.11630350916193
H           1.16427639345906    2.01436428016327    1.72199375896061
H          -0.28679967472393    1.65483805143402    1.36463979464591
O           3.05175968423886    0.40882537384877   -1.35898768088460
H           2.42302035420958    1.13527182990141   -1.16977956499867
H           2.75611604968142   -0.29464056083982   -0.76975969403089
O          -2.72750992504256   -1.08321047360000   -0.43128056411337
H          -2.53494680118987   -1.26755635302388   -1.35373030390750
H          -2.32483458991221   -0.19956531477094   -0.26946669146402
O           1.60997220015201   -0.04720870471339   -3.51983131089348
H           2.29217085673347    0.03789469009347   -2.80437475079050
H           0.26230307367626    0.02046826094976   -2.66126382428320
H           1.67750119552148    0.75400266147421   -4.04393938593425
N          -0.88622934983414   -1.79965717495905    1.36062758610027
H          -0.11566670001516   -1.31060512538142    0.79081204528970
H          -1.74187015435807   -1.72795574935332    0.75834969541223
H          -0.64277594221938   -2.75978058203161    1.57710120217974
H          -1.00458297696165   -1.22241028793377    2.23724759262320
