    26
        -50.43429985  Gyration_radius:  2.73130931444 Dipole_moment: 3.929
 S          -1.70210264718685   -2.26498423965080   -0.02820693534177
O          -3.00773224123615   -2.67626895874229    0.31658008445750
O          -1.00559454151013   -1.39922718965702    0.89350596674986
O          -1.65270621956380   -1.58628540602871   -1.42988389184719
O          -0.80613877049055   -3.51005210866680   -0.30328302638796
H           0.08676387268228   -3.16178596360041   -0.48472554246102
H          -2.00854078812842   -0.63137890364871   -1.40818629974632
O          -0.06995223813990    1.97940891253695   -0.75968775350739
H          -0.04468673337212    2.93737156328361   -0.77706061931723
O           2.49039447354650    0.82797993295923   -0.65751964756726
H           2.27097737067791   -0.11458684238097   -0.68834695514084
H           1.65591601682789    1.29397681586067   -0.83067406826699
O          -2.33270755400298    0.85662277340393   -1.47676088837140
H          -2.51683216083056    1.10310310856862   -2.38592195016232
H          -1.48363396803005    1.31088162519551   -1.21808283792982
O           2.68124924596200    1.18581967488777    2.02866349343068
H           2.72930508657677    1.13089776338714    1.05051386965528
H           3.42402616531757    0.68100765489444    2.36102016671116
O           1.06802843618108   -1.61105694779955   -0.72700506314505
H           0.60731242512119   -1.34146294042419   -1.52819699843625
H           0.50024496804315   -1.32536856496045    0.01556272518645
N          -0.19732312967919    1.26485562080262    1.70534021394174
H          -0.76152396887836    1.78827585939096    2.36106231989496
H          -0.12465189442977    1.71734635445917    0.24656470923094
H           0.75722503450296    1.22940834791260    2.06028160405769
H          -0.55731623994817    0.31550208801691    1.66444733430362
