    26
        -50.47216657  Gyration_radius:  2.42499717128 Dipole_moment: 2.953
 S           0.01507181177463   -0.66787428258032    1.59114879493837
O           0.48987585795586    0.68230312623213    1.82355243424862
O           0.67687181326195   -1.32432330364357    0.48433387377221
O          -1.43938693018885   -0.71010092950681    1.48811713420896
O           0.38929838417669   -1.51180312044659    2.87644647442023
H          -0.13660434021630   -1.08181059721700    3.54137943071631
H          -2.29778710637310   -1.33177462184126    0.13000210816634
O          -2.74199746031560   -1.46729552471827   -0.72989568929770
H          -3.47460346069996   -0.84906798783838   -0.74711188101464
O          -0.37511071755787   -1.25054622656658   -1.99665170325383
H           0.12913104189638   -1.47874574693103   -1.19435282611364
H          -1.30179122641416   -1.44972709184365   -1.75607438031919
O           1.95663850527190    1.66294803143664   -0.17129506042820
H           1.48326128975832    1.40977856192566    0.64924811293884
H           2.59329446816715    0.93463490302956   -0.30994261298433
O          -1.71385709898096    1.69131380704868    0.44466077758682
H          -1.72705469059244    0.79279885904685    0.84109985984329
H          -1.12580131380677    2.18524071006765    1.02413248149062
O           3.19531353741988   -0.73002670723388   -0.17904366618472
H           3.77786873574164   -1.05726742469288    0.50752731942715
H           2.30086260785276   -1.06199546757794    0.03797081208233
N          -0.14032293573802    1.33791448648105   -1.70026211083710
H          -0.23328583197994    1.92317170548944   -2.52238591101640
H          -0.21503475444046    0.29621190876234   -1.94558135842211
H           0.79466685092015    1.50535681446739   -1.20116889172857
H          -0.87951703691086    1.55068611865601   -0.98585353223022
