    26
        -50.46990881  Gyration_radius:  2.42789222085 Dipole_moment: 4.762
 S          -0.71897446556833   -1.31375282728339   -0.52615810753045
O          -1.49319587082059   -0.20080860890843   -1.01745616624204
O          -1.48497764645379   -2.32946726246484    0.15189735412719
O           0.39468192748222   -0.84031912470315    0.32932687962678
O          -0.00140531198366   -1.95030537420270   -1.78242333007621
H           0.36701167768889   -2.79101352083908   -1.44091566006760
H           1.11772285623368    0.01902395768561   -0.94869785758896
O           1.54008661757279    0.59890900462551   -1.61415042508992
H           1.50771497905506    0.09881577264640   -2.43206585699570
O          -1.58485707085905    0.07122165483907    1.90048243453372
H          -2.36621292982775   -0.33931792923143    1.52202147829805
H          -0.84002861435343   -0.39905118836495    1.48502695147342
O          -0.63103369801917    2.23508581192472   -1.45439462405605
H           0.26741457461761    1.92547261238825   -1.67628520944361
H          -1.14582780208623    1.39783489206537   -1.44015839300716
O           1.92404972665213    1.23142944333541    1.22123830005611
H           2.37052607709596    1.38922802635250    0.38258088919899
H           1.49171084763403    0.36627102181097    1.10688481684879
O           0.62453924680341   -3.88887626484633   -0.09133154106822
H           1.23124716695359   -3.52976848910560    0.56048072589241
H          -0.26381765542044   -3.57368055040592    0.16955221495918
N          -0.47178117565733    2.39552377353639    1.13759411603202
H           0.52732813178060    2.09983498220914    1.29913322633336
H          -0.59930624492295    2.45752769677190    0.06585052411125
H          -1.06736851871658    1.60505836981502    1.48402597709542
H          -0.69524683488736    3.26512412034615    1.60794126257357
