    26
        -50.46255579  Gyration_radius:  2.62572733884 Dipole_moment: 5.218
 S          -1.78719855319324    0.01533995261393    0.77634017816290
O          -0.48405252712023   -0.49674877821472    1.28365392089590
O          -2.62884750398304   -1.06099157766148    0.33907574136836
O          -1.52958277272883    1.00737661157795   -0.26957588499122
O          -2.47467061932167    0.73370166623130    1.97320269707260
H          -1.87416365018706    1.45235710901390    2.28851182720062
H          -1.70657892012621    0.09518323794898   -1.67009442991869
O          -1.80850604230243   -0.70728089404099   -2.23279806278601
H          -2.63696341333327   -1.08568020042830   -1.91730252399164
O          -0.62578616189164    2.44495681895791    2.79746236336792
H           0.02639206717548    2.35488093280339    2.07287489269282
H          -0.23570247607526    2.03352564789983    3.57170752412358
O           0.85853537549214    1.61667731906531    0.67811520585884
H           0.53993047009609    0.74057103813502    1.01155769594764
H           0.15173800530284    1.83366197522919    0.04604507264261
O           2.40297785348634   -1.56639230811144   -1.76591141384754
H           2.39639114789154   -1.40214534932493   -2.71078578848191
H           2.67512385292201   -0.71295077207163   -1.35040440604709
O           3.00737176516933    0.78990726055756   -0.70327243192828
H           2.22922643511892    1.16103092771330   -0.22854413479289
H           3.74953554326411    0.86664095687120   -0.10219537903121
N          -0.03754324144076   -2.04604492843178   -0.78102857337964
H           0.94378559094797   -1.93138778667260   -1.14890022894301
H          -0.73143634120900   -1.59947957099031   -1.45573485783124
H          -0.26760021624768   -3.02303863201707   -0.63211014077676
H          -0.15237567772155   -1.51367066664944    0.13011112741082
