    26
        -50.47210209  Gyration_radius:  2.44441843772 Dipole_moment: 5.063
 S           0.83181815217914    0.34665763509494    1.48279143721037
O           2.25591685556227    0.14965760779270    1.56001653212076
O           0.13580776609141   -0.93088266886430    1.20175025387101
O           0.44525764582049    1.32361362221714    0.46172548268802
O           0.32071732534580    0.85160821934143    2.85445698253991
H          -0.52631284989048    1.34414478629352    2.66655500218640
H           2.08485128190239    1.36269091171249   -0.99859223191829
O           2.76183574267599    0.67897639486094   -0.93437413517527
H           2.85752878496313    0.55386911290794    0.03726740818805
O          -1.43098510911451    0.60323956387284   -1.29702841992317
H          -2.07283190845543    0.20929926176382   -0.69090156176094
H          -0.69986977523334    0.91179642779725   -0.72124923130834
O          -2.43355464652055   -0.51364965992315    1.05164126453742
H          -2.91912945308361   -1.18349299518922    1.53473767962761
H          -1.47449908636388   -0.74469081329988    1.13903706198890
O          -1.78277999872839    2.00075129220149    1.88903017469919
H          -1.20796303970602    2.22189067161569    1.14272712361834
H          -2.27620616035938    1.20513536387631    1.61612080088880
O          -0.48695651423256   -1.25304596509267   -2.88131705969538
H          -0.94571084025923   -0.55437744160684   -2.33935498147277
H          -0.27096724164210   -0.83829084794433   -3.71788572632148
N           1.37552980287212   -1.57352362779966   -1.02220007551343
H           0.85566210628056   -1.43858826110022   -0.10759605477182
H           2.01524630219239   -0.72839288246278   -1.11390173114716
H           1.91155949793948   -2.43455060302699   -0.99791973553271
H           0.67603535976097   -1.56984508505122   -1.81553624964078
