    26
        -50.46610736  Gyration_radius:  2.36658745946 Dipole_moment: 2.673
 S          -0.78319037388915   -1.45986309374140   -0.90407659346026
O          -1.74556416705663   -0.39047148996384   -1.13900092039277
O          -0.11775619627714   -1.33200635214234    0.37268526677549
O           0.13410271781229   -1.61882283176202   -2.01539902077530
O          -1.62753397003145   -2.79896540063605   -0.81815685289012
H          -2.01275976047787   -2.86247765866060   -1.68606677191060
H           1.50963301824617   -0.94911420923084   -1.47400736226626
O           2.28684116005140   -0.51426661171697   -1.04703926513499
H           2.67924265603165   -1.19076449674242   -0.49200853281672
O           0.17610327421567    1.30401527455380   -2.12928156017106
H           0.84200431117702    0.88142206653090   -2.67452040235086
H          -0.51297143675681    0.63657202130787   -1.99579836448428
O           1.03595745992840   -0.29827860632373    2.70364182559228
H           0.08701837692767   -0.14507085562324    2.90276515617892
H           1.00953836776331   -1.08422978107160    2.14405560370971
O          -1.59792939448175   -0.10307130453380    2.29269837252683
H          -1.27803833074507   -0.66209614529235    1.56149492346948
H          -1.85331354692015    0.73049252523163    1.88552098000417
O          -1.37332172600159    1.84438632385836    0.17767508196670
H          -1.42291809608107    2.50038880327120   -0.52227422158568
H          -1.61345237686241    0.99413604444416   -0.26457577342408
N           1.24764474259884    1.32624141080639    0.62612035044623
H           1.81632481852825    2.16272877437320    0.70049520109715
H           1.62472480964163    0.69038987180552   -0.12520018698722
H           1.23750378086543    0.76448022115831    1.53087899203101
H           0.25210984174079    1.57424550020812    0.38937405491444
