    26
        -50.46385012  Gyration_radius:  2.46563572612 Dipole_moment: 7.760
 S          -0.81790661299011   -0.09903051223475    1.24571953592941
O           0.55399452571071   -0.54748030552846    0.93956979531353
O          -1.76674675025636   -1.18611711395883    1.03423138667221
O          -1.15459125140995    1.07458490020940    0.44811837517768
O          -0.86016395710294    0.27460661294853    2.73496616293828
H           0.00172712021878    0.77840029433783    2.90376167628875
H          -0.91111891884675    0.85133729180474   -1.11671912492602
O          -0.69942426600238    0.73545945712413   -2.08081270345953
H          -1.13127954403556    1.46392401375354   -2.53074602221165
O           1.88098164415201    0.94845935610956   -0.87733724911624
H           1.50230471753259    0.36606376949680   -0.19366411608383
H           1.23743485903185    0.93321455294223   -1.59633883290206
O           1.40078247034992    1.45016027933405    2.83581857701538
H           1.91743369223454    0.76614170597761    2.39914639655503
H           1.26158394995235    2.15732132803559    2.14834475377461
O           0.82979553299965    2.89671882921777    0.72229459114782
H           1.41098168159276    2.44868247633239    0.07786557498393
H          -0.02812360214391    2.44661398168134    0.62691585343600
O          -0.87617819331257   -1.84644094304484   -2.74844279506940
H          -1.80320700125294   -1.96457355137145   -2.96436427922854
H          -0.75322344137083   -0.88287394081930   -2.59234613404077
N          -0.22330932781983   -2.66733811397812   -0.30284263355185
H           0.49551161237438   -2.00052648130921    0.05994938668792
H          -1.05900539530404   -2.27650585498313    0.25777558580529
H          -0.40280250678106   -2.48315312408174   -1.32488098072922
H          -0.00545104752474   -3.63764891799114   -0.10598276041470
