    26
        -50.46385019  Gyration_radius:  2.46571589232 Dipole_moment: 7.761
 S           1.45987484051595    0.30994728367233    0.03851356580917
O           2.00237633968033   -0.39187291340316    1.19609231237456
O           0.28104083471176    1.10761511753797    0.42698790739293
O           1.11326622112893   -0.61118234492265   -1.03764515319592
O           2.53452753374916    1.28711085568242   -0.46094514484263
H           2.03427327163067    1.95904089834045   -1.02960780083360
H          -0.15930690587951   -1.51608202678093   -0.69154505597563
O          -0.98737005434629   -2.03248059592179   -0.50365350502216
H          -1.01180965203769   -2.73143480067664   -1.15969622364262
O          -1.96887570957768    0.60605671775013   -0.98242523904630
H          -2.01962789083912   -0.35041954648113   -0.86477020588276
H          -1.20743336124510    0.88210295294692   -0.44023628914115
O           0.98366286497777    2.82483774663094   -1.77794124675171
H           0.32199321085164    2.95446027331171   -1.09173346960216
H           0.58364455029284    2.16894074982160   -2.41200515014080
O          -1.28607696923164   -2.35172341984487    2.13318456258927
H          -1.28072713010690   -2.25762548768496    1.15384674377540
H          -0.78037988751564   -3.14332819627982    2.32698716031512
O          -0.13152541176784    0.78545231584453   -2.99540048072549
H          -0.98970774830137    0.78885671232430   -2.52922834562227
H           0.41672576234758    0.16215785261954   -2.48683026868012
N          -0.00563613393892   -0.08704238179801    2.69237433968940
H          -0.27110640578837    0.60278249548593    1.95301230667171
H          -0.00213075891652    0.30769818404502    3.62612888340698
H          -0.60387426378643   -0.95090696649595    2.61108062082083
H           0.97420284347329   -0.32296147572439    2.30545520629146
