    26
        -50.46557760  Gyration_radius:  2.50414253494 Dipole_moment: 1.929
 S          -0.72450679435955   -1.90521050915535   -0.02959881604586
O           0.53126927989642   -2.08145284709472    0.67810748941014
O          -1.87372281562177   -1.74073352206165    0.83331327588261
O          -0.99074617633236   -3.24578263225921   -0.83713011159232
O          -0.62067653651370   -0.83738286466373   -1.02050068713354
H           0.69467853372645    0.15195049053306   -0.93416821208959
H          -1.89519485581814   -3.41502702470488   -0.59565198663279
O           1.40246765344691    0.81748905377009   -0.75635227397480
H           2.15881944109982    0.28065508773728   -0.44399619625443
O          -1.99107169802533    1.43828026243372   -0.63178917660482
H          -1.54506665755200    1.93366370126474   -1.34768939602183
H          -1.73092308390751    0.50758491637828   -0.78084606515182
O          -0.16001907212984    2.41599142840724   -2.40431008779167
H          -0.23230496176045    1.95465753380883   -3.24163580154745
H           0.56773960162254    1.98930308693555   -1.92428899021864
O          -0.42915680721219   -0.47841772640827    2.61000278369066
H           0.29232548729425   -1.05285698498831    2.31466843404224
H          -1.20014530738975   -0.88034341712314    2.15692192673703
O           2.96086170470723   -1.09717453515994    0.26133108183945
H           3.47722617512457   -1.74227903964928   -0.22372581481644
H           2.10757476574893   -1.53523516942975    0.46895814544948
N          -0.15068604593591    1.73386509705715    1.19549002096562
H           0.63764479477056    1.50961880402361    0.53186664826885
H          -1.02428317359072    1.73751287970536    0.57235499629955
H          -0.24815698270657    0.92377188120250    1.87656952193856
H          -0.01394648858303    2.61755204943426    1.67209930136486
