    26
        -50.46713674  Gyration_radius:  2.40172571255 Dipole_moment: 8.988
 S          -0.68069731584992   -0.15956743591361   -1.64428323969724
O          -0.23771876239784    1.15633742831144   -1.19729518218610
O          -2.11942740864173   -0.30914996584974   -1.47144948438346
O           0.03482568718095   -1.22245721639557   -0.92222314700868
O          -0.34472964014294   -0.31011899195398   -3.14462216801800
H           0.64274001139545   -0.44347744496946   -3.13888117771556
H          -0.18121947073366   -1.53043518788817    0.56562113955606
O          -0.33830082034068   -1.69518380909905    1.54659019951397
H          -0.17334017453076   -2.63056420952199    1.67612530868114
O           2.12774814755316   -0.81382192575772   -2.54121044307965
H           2.47442285785873   -0.06456624830527   -2.01611480968751
H           1.66843781065367   -1.36060854304497   -1.88711089669609
O          -0.72711031803918    2.03336116445146    1.23197291876824
H          -0.54595976213492    1.94609108494429    0.26957624790729
H           0.07200649126253    1.67286978578359    1.65342891899530
O           2.36083654357819    1.08328561261856   -0.61364974637254
H           2.29894900966028    0.83877817250318    0.31671502143817
H           1.43867272712445    1.26092307999909   -0.88074070182339
O           1.35156607852985    0.41025824066771    2.08571198698393
H           1.82206095599141    0.29585322844389    2.91257087471889
H           0.82026433285300   -0.39488396496884    1.93880805584310
N          -2.38547986568337    0.04120443824062    1.07577693082042
H          -1.85218550939751   -0.74818122619411    1.47525018935857
H          -1.80415999810742    0.93775236052039    1.24574889608891
H          -2.39847842227698   -0.09904634501731    0.00863204752020
H          -3.32372316535231    0.10534791838789    1.45505224047632
