    26
        -50.47398744  Gyration_radius:  2.43831706101 Dipole_moment: 2.195
 S          -1.80616302919698   -0.60904483895909    0.25590010435276
O          -1.60002723792408    0.68003675188393   -0.40204398989525
O          -0.83476831249411   -0.80966710667871    1.31349995297980
O          -1.90253929634905   -1.70202383935621   -0.68348364400100
O          -3.21859212268937   -0.52349763476081    0.96433537610659
H          -3.77488088663574   -0.85664745074355    0.26971897915868
H          -0.48993094809465   -2.11415799769448   -1.40490084949837
O           0.38477666467498   -2.25324858436634   -1.83850681478118
H           0.30095928838448   -3.04891063074126   -2.36595691149415
O           0.24816351122902    0.46393570499441   -2.41956929145196
H          -0.51888516862475    0.58759209879429   -1.83587586004520
H           0.39534502917371   -0.49435516797230   -2.44689267285688
O           0.45216780048087    0.76729607258602    3.01429205053876
H           1.29819494580033    0.32121782034291    3.10217906838486
H          -0.13712574529353    0.12098386850923    2.57365911635717
O           2.14406532561602    1.23390188004554   -0.71907087122315
H           1.59619638645691    1.06043454829901   -1.52042526101206
H           2.20130031896842    0.35365962510342   -0.28179935863395
O           1.67771018705999   -1.16222784246955    0.37148161846312
H           0.80182791762122   -1.08803675064810    0.79101428771733
H           1.51698374052473   -1.69386100079056   -0.42153728504447
N           0.24784450055657    2.18597309801199    0.74881307771512
H           0.09112892418207    3.18718787945560    0.74924709887461
H          -0.56612800479545    1.67693727708272    0.31858831632723
H           1.11640717122329    1.90677868351034    0.14873168196839
H           0.37596905014502    1.80974355655028    1.71860208098861
