    26
        -50.44043826  Gyration_radius:  2.55140377135 Dipole_moment: 10.109
 S           2.17452404855920   -0.41343468461548   -1.43560274008630
O           2.76664108389091   -0.39934134536208   -2.71852736131249
O           0.73909253436371   -0.28781644879965   -1.36298499313751
O           2.76627473003629    0.76798729833253   -0.59046268302305
O           2.60311345845480   -1.67630239467814   -0.66370538010855
H           2.09096629109862   -1.68496176347404    0.20186663067568
H           2.14754208453789    0.96387728002869    0.14658391853416
O          -1.47997240370641    1.42042992242075    1.06585977372880
H          -2.09690069096441    2.08432717049318    1.37578153716096
O          -1.70850702449469   -1.68566702310783   -1.36493158211283
H          -0.81325442601484   -1.36233305201899   -1.53574421311922
H          -1.74382686665847   -1.80382370917862   -0.40854512021739
O           1.15816747443070    1.34705002433989    1.46264671174158
H           1.42143183046598    2.19913480739760    1.81466158361244
H           0.18997488545804    1.39539249325345    1.27621681030013
O          -1.46018140937527   -1.28827963519460    1.46450079895895
H          -1.51968831643250   -0.32034519838086    1.34045271784479
H          -1.97051235427300   -1.51023993786187    2.24435401967049
O           1.27231614305386   -1.43384248057416    1.51895591875865
H           1.36921284708400   -0.49366809744922    1.72403682513216
H           0.31339967862529   -1.57153914559586    1.39755322247847
N          -1.69180971562412    1.20123940684744   -1.49055108409389
H          -0.72696657274618    0.94077429306549   -1.68898921178998
H          -1.98531009964943    1.89343276990105   -2.16774696669297
H          -2.22521646524038    0.34732470690710   -1.64611024263859
H          -1.59051073488382    1.37062475328874    0.04043112975741
