    26
        -50.46986023  Gyration_radius:  2.51191479304 Dipole_moment: 4.773
 S           0.03680834357845   -1.16030654661232   -1.02450839251002
O          -1.18401730965642   -1.53410388033197   -0.35119082777343
O           1.22749645958606   -1.36350556472010   -0.18251381201233
O           0.00781612842655    0.21659000292005   -1.51377934136957
O           0.18246794874480   -2.10249786527430   -2.26317907483745
H           1.10290064548718   -1.98502008066835   -2.56512532015355
H           1.05834440038553    1.10237586365357   -0.63197378872882
O           1.66542384550419    1.43208188821867    0.07593854904317
H           2.28178862223925    0.70438722468671    0.20020126438986
O          -2.55784581977196    0.67493505264511   -1.04211555066969
H          -1.65709339368878    0.73045593001178   -1.41439938213860
H          -2.58842644434596   -0.24274811110265   -0.73658883603593
O          -2.35583656377690    2.26304034353843    1.02229648241221
H          -2.36462684939412    3.14252405883561    0.64112846963566
H          -2.52644355817963    1.64166053832269    0.25887353231808
O          -0.13801503081603   -1.29369562832131    2.07387734316427
H           0.58662819094557   -1.42793521072695    1.43040651731630
H          -0.90779485656086   -1.54521486839254    1.53893380411913
O           2.82517274269926   -1.76007568647664   -2.21658667901952
H           2.43352172190760   -1.57281061089929   -1.33810876369178
H           3.31691235797459   -2.57945351565325   -2.12933618940623
N          -0.08864090924037    1.34673643393883    2.05475998009935
H          -0.17693794525289    0.29214239533747    2.17947116921180
H          -1.00542048766185    1.73514095957537    1.69522840501657
H           0.17061486137809    1.79216391909064    2.92826441015106
H           0.65520290949465    1.49313299840039    1.31002603146251
