    26
        -50.47113008  Gyration_radius:  2.40447435708 Dipole_moment: 2.764
 S          -0.56547748166475   -1.47078268504247   -0.84139733275928
O          -1.31329374649220   -1.55841287284103    0.39664895565329
O           0.84821934339705   -1.75852976493762   -0.67123828464609
O          -0.77544474732612   -0.20513081493566   -1.53047847284531
O          -1.15672476442041   -2.58254313365514   -1.79239718533055
H          -0.77363959878552   -2.35439047686268   -2.63324582069388
H           0.29269042070846    0.98298758531332   -0.98205763553277
O           0.98233567906852    1.57192987081427   -0.61101580735510
H           1.69456450948464    1.50476870975409   -1.26115573934807
O          -2.79417010674664    0.81735985411568   -0.14643315436606
H          -2.13249545262648    0.51758419368952   -0.79956746067394
H          -3.04195422752844    0.01835966670287    0.32594555201588
O          -1.02917173345602    2.27441759809206    1.24631336753939
H          -0.31314388125034    2.38508501769751    0.60415893201072
H          -1.79646860431327    1.93866110975858    0.72994902183844
O           2.01168429618043   -0.19127438834895    1.17508859987158
H           1.76537337161934   -0.93364018383495    0.59109741437367
H           1.86256528592507    0.59861024208309    0.61402076132725
O           2.52796353581392   -0.18099003695010   -2.10650636406742
H           3.40099378166456   -0.55228723568563   -1.96981469604065
H           1.90491337899448   -0.78970363710808   -1.66802970501045
N          -0.33003909487291   -0.01177252021424    2.30475463910583
H           0.70659152713098   -0.09255686500384    2.06516363385440
H          -0.64220276946450    0.97450857530912    2.01681363898819
H          -0.80938477298544   -0.69165714588557    1.66419567182741
H          -0.52428415800995   -0.21060063197382    3.27918748045229
