    26
        -50.46823144  Gyration_radius:  2.44819747076 Dipole_moment: 2.697
 S          -0.54117251633005   -1.97570065884092   -0.10994199978454
O          -1.23147111559782   -0.83913780887735   -0.70906623952360
O           0.39989923106025   -2.62093588954448   -0.97845248720690
O          -1.68325378735366   -3.04643250616942    0.19187072315550
O           0.01178641227978   -1.60502198944494    1.19076729599307
H          -1.00719820689620   -0.45101602264868    1.70892613285074
H          -1.25998029440229   -3.86240654292083   -0.05406706796481
O          -1.66040688199414    0.28034348633009    1.82689497094441
H          -2.39297147064243    0.02831548485610    1.25836815972738
O          -1.45530119198894    1.55977392824598   -1.92843294973018
H          -1.63232654748553    0.66305827777719   -1.59313027147160
H          -0.70005935493579    1.45188862189559   -2.51603533717111
O           2.43388617996872   -0.61456282381062    1.57426059949020
H           2.54661267084736   -0.62394899082189    2.52583310585609
H           1.58355822702801   -1.07071264313635    1.39879708212773
O           1.99259439965296    1.46668202576507   -0.04554360496267
H           2.28782275441803    0.78271740528237    0.59220580935380
H           1.78852466014696    0.96525784860222   -0.86209464888530
O           1.00272358715669   -0.11304053796071   -2.00338881522786
H           0.20423058954175   -0.44821266932638   -1.55455831198648
H           1.52552757497308   -0.90570688517080   -2.15206752450963
N          -0.44764985815040    2.22113092846704    0.46233662325222
H           0.59285543669284    1.96453442196839    0.33824713823203
H          -0.89297272568943    2.13207758591308   -0.48718074847643
H          -0.91081408790946    1.50412644964203    1.08866101434805
H          -0.55444369442070    3.15692950390472    0.83679135161796
