    26
        -50.44189059  Gyration_radius:  2.75825047295 Dipole_moment: 3.042
 S           1.57256073052998   -0.90909408677159   -1.29977452730026
O           0.78752365250603   -1.96033472683513   -0.71914374139982
O           2.38311375868104   -0.16177276434723   -0.39492495415269
O           0.62857709592263    0.03452662545038   -2.08904447836667
O           2.47043020414465   -1.46851134891227   -2.43091636987384
H           1.83967674996772   -1.83030133429573   -3.09414269883627
H          -0.19058345148402    0.32542885997345   -1.46978241036432
O          -0.80203635283392   -1.14286244033362    1.30860757385636
H          -0.33090680095998   -1.73154395537179    0.69602243873240
O          -1.26844570962316    0.61046881769504   -0.60905384909872
H          -1.23855873697583   -0.11724689903966    0.06667077230788
H          -1.12604594647964    1.43033546391558   -0.08599613287948
O          -1.17861586618204    2.56071536364069    1.24727375138536
H          -1.79504212474272    3.27750878106939    1.09020502142225
H          -1.63493240724708    1.93219808629924    1.85222337928294
O          -2.33841949602896    0.64034030317328    2.74855771414345
H          -1.96200724514559    0.52590572095816    3.62298853378108
H          -2.05343522751206   -0.13303313457313    2.23523205606681
O           0.45913114548426   -1.82150471284589   -4.07518088602075
H           0.59510700785258   -1.44886329482419   -4.94999156413890
H           0.09745589573073   -1.11602111835225   -3.51786660990261
N           1.08494922606249    0.58680432313823    2.06491011847774
H           1.69545634587968    0.37385240515463    1.27656955323445
H          -0.08210592788019   -0.58266456355775    1.70974712023415
H           1.65916612622881    0.60084047201950    2.89824940160725
H           0.72798735404171    1.52482918756843    1.91856077782417
