    26
        -50.46810367  Gyration_radius:  2.51212309525 Dipole_moment: 1.186
 S           0.16172124054407   -1.40507729259102    0.08922699744891
O          -1.04579621882452   -1.09020725650640    0.85060030346760
O           1.37053525171979   -1.07423107735456    0.82154995005746
O           0.13676514972633   -0.74218334901159   -1.20993237008434
O           0.17422551618136   -2.94755918898601   -0.16018111202555
H          -0.70225892018537   -3.11121114972214   -0.55490315022160
H          -1.12581943386729    0.29670636431275   -1.52328951528100
O          -1.79495675797386    1.00681173434964   -1.65053310253569
H          -2.60257403512648    0.55727366256442   -1.90345655280341
O          -2.43236174285465   -2.66866823505571   -0.68547723120673
H          -2.12950379954257   -1.97172753026124   -0.06476413156897
H          -3.03651029392025   -3.22834895711009   -0.19261544231504
O           2.93744146948603    0.54017924474661    2.51868370030770
H           3.50603553340571    0.15256841443412    3.18496304606996
H           2.49565988130143   -0.19937097913137    2.07697748458564
O          -1.34277931595159    1.56854853747387    0.97151470517548
H          -1.34554295173379    0.60755575879939    1.15117522504291
H          -1.66935312906885    1.62955734003981    0.05337792997225
O           1.10368936512225    1.62674684104834   -2.11133344799881
H           0.24535652400687    1.98018716588082   -2.36692035968570
H           0.95025623092294    0.67009417077726   -2.00238010535809
N           1.24638211952988    1.59386166702441    0.54662525868042
H           1.36554702383709    1.84321556782004   -0.46520649838695
H           1.38076784010324    0.55794085566537    0.62524378599248
H           1.91872963164842    2.03586390716908    1.17062884302966
H           0.23434384152047    1.77147377361697    0.83042579965141
