    26
        -50.46361288  Gyration_radius:  2.49257219098 Dipole_moment: 6.639
 S          -1.14436208248228    1.43130350077699    1.47705467592201
O          -2.29511885760404    0.57049288149623    1.19857041738970
O          -0.34595587696142    1.63265878532787    0.27951992193327
O          -0.38991444194402    0.98640559005533    2.62468397779673
O          -1.73200543132108    2.85366898339672    1.86203595174105
H          -1.89382829171700    2.73526102686582    2.79198663928071
H           0.74424887682268   -0.18696854029165    2.20795269983039
O           0.48364508298678   -2.25131175184424   -0.05282113537268
H           0.63108221205855   -3.14817383304797    0.24951147017904
O          -0.57764519557959    0.85156286667133   -2.26050477985835
H          -0.49180566345265    1.37409555728415   -1.43704316150534
H           0.29307274534979    0.45016276581303   -2.40142631829992
O           1.41669676082256   -0.74891299919258    1.76782413252576
H           0.82918455492751   -1.65181524108729    0.70548456575311
H           1.95824136068104   -0.10412129901836    1.25840719585509
O           2.29438236745379    1.10129722371437    0.04883209397247
H           2.23736939599727    0.60879890149826   -0.78207562901993
H           1.41133747426473    1.49359488492079    0.17363989597785
O           1.68835499364486   -0.76133566422935   -2.01081753498792
H           2.41647297095991   -1.22702016584962   -2.42350282763414
H           1.30214359423431   -1.36255452608282   -1.34373469222973
N          -1.78474798768590   -0.95754998429514   -0.80027197932153
H          -1.39744571508990   -0.28002444565181   -1.53022071561074
H          -1.01103708129918   -1.58469035241773   -0.50152989125858
H          -2.06020110117055   -0.34533503672575    0.04345860411633
H          -2.58216466373822   -1.47948911824474   -1.14501358690282
