    26
        -50.46795008  Gyration_radius:  2.48351741081 Dipole_moment: 5.295
 S          -0.29942531201174   -1.56276404875921   -0.14955658601268
O          -0.28864265521598   -2.50354546060005   -1.23942867826499
O          -1.25997166343526   -0.46079346371012   -0.38329350359036
O           1.02886617649086   -0.98721606182246    0.08784023970182
O          -0.75519946564213   -2.29033636266542    1.13308382465173
H          -0.81912135986240   -1.59544438442406    1.86432649488985
H           2.21129866916952   -1.27439405018438   -1.95741790493549
O           1.52831049915118   -1.24523925987873   -2.63439517723138
H           0.83345596984996   -1.85099581963393   -2.27898443234797
O           1.55206602862452    2.56838509329846   -0.44020126133579
H           2.50791687284672    2.57775250526974   -0.51433823686918
H           1.34360191849649    2.12409389657428    0.41167772844496
O          -3.10691040047576    0.33047292523112    1.36038382306977
H          -3.80324058727244   -0.32813470892483    1.34122484158572
H          -2.49424604533044    0.09813005967692    0.63157310947745
O          -0.96845691950274   -0.36675594361642    2.82615908178900
H          -0.28977296515912    0.27434831686019    2.55303260408234
H          -1.81984754550120   -0.00378575586838    2.50180921555206
O           1.17450385402452    0.97587222425825    1.69420329870611
H           1.11558193454043    0.19247740923598    1.06594160047852
H           1.92043821303544    0.79342932272740    2.26899107274436
N           0.13723791877293    0.93151645495123   -2.05097955347838
H          -0.37144112880631    1.37817274704504   -2.80664312811198
H           0.69540465658805    1.63055757698365   -1.50425903156153
H          -0.53343631327275    0.44568856610876   -1.37343624478599
H           0.76102962986174    0.14850824189396   -2.40731321664553
