    26
        -50.46851029  Gyration_radius:  2.45297446778 Dipole_moment: 4.996
 S          -2.03003048741928   -0.34824056564359   -0.23355206876196
O          -1.71082602422047    1.03172643186407   -0.52313470857419
O          -1.74605724241679   -0.71236207484722    1.14898795789580
O          -1.43115345239045   -1.29583618610390   -1.16261685842170
O          -3.59587972642560   -0.48851495615696   -0.41506464937247
H          -3.73511418327287   -1.40701013182666   -0.21069014171109
H           0.03255451369988   -1.69832468833765   -0.64804867624519
O           0.97582306263030   -1.91419908965273   -0.43060666730200
H           1.16220809491737   -2.74549131943885   -0.87006545314844
O          -0.36715039350772    0.66894104312825   -2.81915782030145
H          -0.93094595357939    1.02061456200260   -2.10825707181882
H          -0.60062853916836   -0.26493081897834   -2.84383242576761
O           0.44927927377685    2.36226543719614    0.39580921549896
H          -0.42182557924725    2.16506632724114    0.00764520147952
H           1.08368205005963    1.88641845862888   -0.18936516760689
O           2.38118401542893   -0.82984043100241    1.62507592736514
H           2.92048161872026   -0.23666813973747    1.09383316060174
H           1.90742649664469   -1.39335098846235    0.98527803049229
O           1.79158451060971    0.66229418763332   -1.18608162699724
H           1.18806246537685    0.80614135192062   -1.94373299482180
H           1.62360600823624   -0.25790808159954   -0.93165017224249
N           0.21202707330854    0.60030782767181    2.28566140614043
H           0.33742180648699    1.43860770008475    1.61771828577203
H          -0.60663168435897    0.04663582075200    1.90226571672205
H           1.07649676958775    0.01117151291626    2.21400650862212
H           0.03440550651939    0.89248678074420    3.23957510249906
