    26
        -50.46923811  Gyration_radius:  2.47975493217 Dipole_moment: 2.937
 S          -0.68632753424638   -2.11162321743902    0.44610723077706
O          -1.81658491117923   -1.41292950665580    1.03842315892164
O           0.31938432604569   -2.49913968711169    1.40261802677148
O          -0.15224513913804   -1.38866191437265   -0.70357862629411
O          -1.26606759891756   -3.46277226620008   -0.16089523642811
H          -1.39101357213982   -3.97925000638673    0.62811506885724
H           1.38596061569295   -0.90624203072844   -0.67124125856698
O          -1.01560063446510    0.73450071525097   -2.10397903050065
H          -0.74003881796021   -0.15006027716090   -1.79378179978247
O           0.10886027452163    2.18135201025332    1.21386176001625
H           0.53483002583556    1.40532425880936    1.64434593097423
H           0.58161769693220    2.28723539297044    0.37131626959319
O           1.37236577307057    1.95477174465041   -1.26638636180744
H           2.07138577862730    2.51574687807402   -1.60426967053214
H           1.77708058898303    1.08091517138983   -1.07170472518815
O           1.32106756465441   -0.08423686844706    1.92700512372757
H           0.90402934720240   -0.96574557338396    1.91977874321250
H           2.00118021482979   -0.13650453164034    1.24411532523420
O           2.29277959101108   -0.50580497172697   -0.69650244429482
H           2.83583587912126   -1.11344120633158   -1.20034498255125
H          -0.22210020369097    1.28552310767712   -2.01591030306400
N          -2.07506990081870    1.07116885538418    0.29539589072355
H          -1.84827401846874    1.04046758025441   -0.73607365420761
H          -2.03772909985650    0.06808651508445    0.64117780580798
H          -1.27656505360557    1.60286110559974    0.76871263976397
H          -2.97876119204569    1.48845875219493    0.48369509882673
