    26
        -50.46795010  Gyration_radius:  2.48367356358 Dipole_moment: 5.302
 S           1.37994212050971   -0.31024197518241   -0.74379533678384
O           0.03965481793436   -0.78643276301152   -1.15397313404214
O           2.34100201311015   -1.38166168717705   -0.70762085258829
O           1.26385132167447    0.36276834095700    0.55444692858243
O           1.82847773278241    0.72666374606793   -1.79537728032177
H           1.10608963929913    1.43181209627193   -1.84843620210012
H           2.06470860388555   -1.21580306392835    2.15258861495323
O           1.85162542792987   -2.07025773651533    1.76546368155651
H           2.16681404550951   -1.98028035108794    0.83348441528036
O          -0.63788602676616    2.02335943127557    0.83832375843507
H          -0.25489771159670    2.79560360673905    1.25907897462589
H           0.11997024377080    1.37244442327656    0.72025023641585
O          -1.87206249931784    0.19671118328632    2.37917890025519
H          -1.57869712599843    0.91652064502396    1.77721429647984
H          -1.55981526637928    0.43128959246871    3.25474274689521
O          -0.16189847372770    2.35269938955435   -1.87097831535866
H          -0.76504679847617    1.79169595903536   -2.40328721643046
H          -0.52149541052175    2.33937412923674   -0.96724165170634
O          -1.43128756712292    0.31730581965808   -3.07614501567992
H          -0.96169548177745   -0.18979164290223   -2.38122268363930
H          -1.04108730457086    0.04844557722640   -3.90950408922069
N          -0.69720930964564   -1.85458886307142    1.07943506799229
H           0.27049087654703   -2.03075738868946    1.48182754463866
H          -1.20421310887775   -1.12666778302131    1.63801244778248
H          -0.50769572729271   -1.44935079897840    0.10749951157461
H          -1.23763902089182   -2.71085988651668    1.01603464242495
