    26
        -50.46451533  Gyration_radius:  2.5109400311 Dipole_moment: 7.298
 S          -0.62801178309331   -0.64370590307975    0.71040200495152
O          -0.69267674751389    0.77400265438544    1.03646248203499
O          -1.20558419007678   -1.51143630618219    1.69971890031316
O           0.93705468007850   -0.98087818228056    0.64345566285782
O          -1.07206446982790   -0.89980761021262   -0.65574588791572
H          -0.31527835569859   -1.19514604238926   -2.08028231382033
H           1.22305871138114   -0.94202613223616    1.60700551188495
O           0.25297141657483   -1.21367753964275   -2.88872080031984
H           0.49668418406979   -2.13117009845900   -3.01811313112014
O          -2.05726462655679    0.93716571259159   -2.34481782532104
H          -1.80646044753554    0.53204396253549   -3.17797017898388
H          -1.89501491162751    0.25604147560561   -1.66262844729393
O          -0.25436797081200    2.35960648245969   -0.98859894478007
H          -0.48672432942651    1.93525507740965   -0.12720445120054
H          -0.98995621052232    2.09139741433393   -1.58220931879431
O          -0.81182387332650    0.18783492586946    3.66227885476912
H          -0.84401589114436    0.91797989066536    3.03014372689803
H          -1.18748333556949   -0.55386256595891    3.14653431880730
O           1.52226877528390   -0.85918985304290    3.13183567759474
H           1.45929205252289   -1.74364711023831    3.49977397990844
H           0.71762438242921   -0.37345846314635    3.46950260546219
N           1.56383761128640    0.61567485605560   -1.43536234755882
H           2.51243383101060    0.94155870492199   -1.58557828498540
H           1.23192281954998   -0.00394379647570   -2.20721424197622
H           1.48494939663326    0.05098209654455   -0.56408711977754
H           0.84462930191014    1.45240637997431   -1.31858042163947
