    26
        -50.46516759  Gyration_radius:  2.53863899322 Dipole_moment: 5.803
 S          -0.48777673862731   -0.26486217245820   -0.27904543546685
O          -1.00584223122485    0.63384630410768   -1.32328525099468
O          -0.57785372581748    0.60908769681763    1.01246435030612
O          -1.27490665449878   -1.45874459007940   -0.10834874773309
O           0.92785751604335   -0.54087487633469   -0.50666167125470
O          -2.49493277409202   -2.12703015283773    2.15731914562767
H          -3.38621149238666   -1.77675462328133    2.13586814541585
H          -2.11676757010918   -1.96578645382320    1.26752148210415
O           0.69261633254724    0.86383297188449   -3.41160858803839
H          -0.01240296153608    0.73450569618201   -2.74648603480225
H           0.81692768361793    0.01177744508211   -3.83238709188019
O           1.03387488148654   -2.58301289411619    1.19726137060476
H           1.15197639567308   -1.88702436463192    0.52286444751076
H           0.28274640321801   -3.09974035305601    0.89257195648636
O           2.33045273792402    1.49873673364130   -1.37820990404701
H           1.23761708767630    2.35534092833809   -0.83080235971166
H           2.03187578006875    0.65601258760988   -0.96305137607588
H           2.03083525244473    1.39629756847037   -2.30467579567625
O          -0.18599180625460   -0.97323524038258    2.92757554809099
H           0.41638682341297   -1.61747133898067    2.48665480024220
H          -0.40311440790246    0.00279147947551    1.83276530124697
H          -1.05423827367096   -1.42301460278581    2.94640128903489
N           0.25116371624017    2.71124915627337   -0.49392227306834
H           0.18090952929825    2.65514174426673    0.52085739733349
H          -0.40897608277092    1.95147123892269   -0.88046911175063
H           0.02377456923874    3.63746013168728   -0.84117160350745
