    26
        -50.45488106  Gyration_radius:  2.47419436276 Dipole_moment: 0.414
 S          -1.19959964242142   -0.44142221505720    0.54172872118710
O          -1.11879962703543    0.99888198288857    0.41035974100274
O          -1.32164847205280   -0.82446003721404    2.00411657470795
O          -2.50877029691567   -0.94294389809505   -0.05153431607133
O          -0.08007798717504   -1.12566752496058   -0.05804960797648
O           1.86671316546504   -2.27950787042930    1.36862391921912
H           1.61488243546207   -3.19090387505159    1.52683164918831
H           1.22741492404636   -1.92560471270640    0.71957615887214
O          -0.86892281585198    1.60760656979083   -2.22579025718562
H          -1.05090898475776    1.65952430224820   -1.27392786250359
H           0.08406258220237    1.34912791797008   -2.26164655476655
O           1.23454662516572    1.76692334725598    1.35077201200930
H           1.13895657744316    2.64232931579735    1.73132268348025
H           0.37771956759578    1.55830241535558    0.92231763174618
O          -2.31430740770524   -0.50260836235317   -2.51707405767843
H          -3.15991542779882   -0.22323451938572   -2.87639950508994
H          -1.71947135245646    0.31568402197625   -2.52384208353776
H          -2.45234537213590   -0.82823701243322   -1.07887155922711
O           0.92784084928674   -0.36044937562406    2.94956195862002
H           1.19022091097796    0.45632382031457    2.46695894604055
H          -0.39118998620537   -0.63047524666558    2.49393158161212
H           1.44431561327522   -1.08832989677045    2.53153559638668
N           1.58994934483867    0.65081189241364   -1.69120563880843
H           1.13878102076125   -0.13183627489600   -1.22336938995473
H           2.01968224883274    1.21081206306548   -0.96374715231936
H           2.33087153714098    0.27935318258588   -2.27217919894623
