    26
        -50.43926802  Gyration_radius:  2.56725819396 Dipole_moment: 5.166
 S           0.43603280241910   -0.32122550765542    2.17227109943355
O           1.24497666260108   -1.47839380948383    2.10388167960443
O          -0.94420754957507   -0.43107719923456    1.77958941115462
O           1.08641596899885    0.82704254282621    1.38845459951598
O           0.44520363045947    0.20149585318814    3.65871232988842
H          -0.30113927827140    0.78566476266103    3.78343620678357
H           0.32254138304594    1.51703515993102    1.25227646713740
O          -0.62518645191148    0.16857976995824   -2.23812426593023
H          -0.63811802333937   -0.07968695084215   -3.16363976175050
O          -1.42473290254656    2.55791538522951   -1.37393455751713
H          -2.34105048025772    2.64689657313386   -1.64108070522279
H          -1.10832769334918    1.69908787774521   -1.73864565999465
O          -1.00464269708521    2.16616575505741    1.19159615734204
H          -1.14079968557268    2.43923529690439    0.24436014570460
H          -1.49388141025462    1.33634019530026    1.30149066243944
O          -1.34858568259685   -1.93741119556870   -0.53330186130583
H          -1.35192872452009   -1.51938631669344    0.33764932326133
H          -1.22621295314154   -1.21617698220604   -1.17212881649828
O           1.25157005014656   -2.80749286720821   -0.39399278987385
H           1.40332679383527   -2.61467716392555    0.53904980032160
H           0.28589253185181   -2.73217657618725   -0.51656430574622
N           1.80487073876082   -0.22898119678774   -1.39356572745206
H           0.34020215631321    0.05248604847921   -1.92968326915643
H           1.75905614364576   -1.22309273509060   -1.13604610328938
H           2.61409013833408   -0.09684956366188   -1.98658186982891
H           1.95463452198937    0.28868284412107   -0.53547816906967
