    26
        -50.47229307  Gyration_radius:  2.48038325762 Dipole_moment: 1.997
 S          -2.13062545297649   -0.73922239412438    0.32937764003806
O          -2.26352405925258   -1.21662858117053   -1.03333602117402
O          -2.32682084778755    0.68860750083984    0.47481080728016
O          -0.87787072083563   -1.17684335209537    0.93769703772024
O          -3.29742455349655   -1.43471661067883    1.14581206746903
H          -3.32125376061393   -2.29535815209542    0.74122321724575
H           0.26692801195133   -1.79070854537748   -0.15699241635599
O           2.71798915984522   -0.23017464589577    0.13240534622581
H           3.60936952407710   -0.57172734430679    0.06007120886724
O          -0.40289168116170   -0.06746298277284   -2.41986703121231
H          -0.75776032700483    0.12954548599496   -3.28816335579129
H          -1.14979817067178   -0.46881451305685   -1.90606952083109
O           1.24319534160382    1.71212744081686   -1.14414231083980
H           0.66130118776840    1.13629748714002   -1.67548093464762
H           1.91937280526729    1.11967318083252   -0.76852955969302
O           1.05729543788801    0.08771332153820    2.31600929667746
H           1.79793302713220   -0.04786018972816    1.69782893053648
H           0.35807676559542   -0.51894616153867    2.00430582459683
O           0.97433998494830   -1.91371019556319   -0.82405319232876
H           0.63469475984154   -1.48172239056952   -1.61985669231092
H           2.11262591830302   -0.93665390852919   -0.23584110058761
N          -0.16760523762575    2.03739313028980    1.05883838274524
H           0.38433424840080    2.06843232566708    0.15094081426971
H           0.35813667894169    1.38604136917746    1.71763481430171
H          -0.30766946848134    2.95990176480395    1.45350394155915
H          -1.09234859158270    1.56481693034308    0.85187280620404
