    26
        -50.45970209  Gyration_radius:  2.46824211728 Dipole_moment: 1.797
 S          -0.27511178307534    0.20413184351118   -1.26289471220173
O          -0.91957725358872    0.05847891110470   -2.66859981847068
O           0.71558561783048   -0.86514796549048   -1.15803823270414
O           0.31931289011759    1.51853749233847   -1.14366056877097
O          -1.34121490609226    0.00271123971490   -0.27380412255363
O           1.15717875129320   -0.12887492285034    2.51157850280074
H           0.96994423316892    0.79894677469072    2.20484103195535
H           1.85881953743271   -0.45923875498612    1.89026530268108
O           2.72334181973783   -0.96779375812263    0.57561724847456
H           2.90851807480311   -1.90947318052436    0.56627172577081
H           2.09130734924461   -0.81493701443097   -0.15800472549013
O           0.23026968273505   -3.08951740352821    0.11092119760182
H          -0.36422560292771   -3.64335929596212   -0.39725957228281
H           0.44674169228106   -2.31407338804114   -0.46553571714044
O           0.76160863657904    2.18706478023426    1.34941543744011
H           0.54706830819365    1.95230413155277    0.41515327900242
H           1.55734938404686    2.72101502497561    1.30419867263356
O          -0.81794249943837   -1.38024405914974    1.74797567539103
H          -0.43336275992523   -2.18074424668780    1.27555235666895
H           0.06991220461316   -0.81774882474209    2.18689051747859
H          -1.12617749008489   -0.77632564654946    0.96942581757487
N          -2.34079435004706    2.10429685918630   -1.93597164248141
H          -2.61546643055706    1.61559836664928   -1.09089854750788
H          -1.57119012773200    0.80882564958065   -2.65425848394835
H          -3.06334584563869    2.76825724391425   -2.18539771880846
H          -1.48854911297385    2.60731014360093   -1.71378291310406
