    26
        -50.46930065  Gyration_radius:  2.43440404385 Dipole_moment: 3.382
 S          -1.23949310619737    0.08017383059034   -0.20690313016518
O          -0.12580454406827   -0.36504417385985   -1.06741583262283
O          -1.56746590638126    1.46234605685693   -0.48129154310434
O          -0.89106577238096   -0.13243195987402    1.19746993899563
O          -2.46530359144714   -0.79037479792320   -0.54428062242737
H          -2.24792585280657   -1.70823113265475   -0.20352870488214
H          -0.32188933204183    1.35014668629899    1.71702517185063
O           0.14232019838256    2.21744704613921    1.69635240087091
H          -0.48365937712333    2.81044556399997    1.27010638197027
O          -1.75025113818911   -3.15678822454364    0.20436149763380
H          -0.76454915231595   -3.11833227403028    0.06949857164226
H          -2.07995252041501   -3.80606981676849   -0.42059436160556
O           1.58956708372656   -0.97696287739970    1.59287284498453
H           0.65507798532885   -0.69685610857376    1.47879340543675
H           1.69624050705049   -1.13578989000452    2.53179354093718
O           0.10721944033622    2.87739909783122   -1.96209050892698
H          -0.60350939142040    2.43110496825690   -1.44342570417964
H          -0.08850484937343    2.68710373669728   -2.88067860150388
O           0.78438169261397   -2.76083349631457   -0.35890337680113
H           1.27668566233468   -2.42418169192762    0.40695570339293
H           0.51267949943393   -1.94562118005561   -0.82429310259619
N           1.61901666262647    1.42251523647308   -0.35248156155204
H           1.21031672522512    1.76801306109158    0.56483336242837
H           1.37865913665344    2.13420292752052   -1.07781578756461
H           2.60793391688169    1.21024086181265   -0.27683100764123
H           1.04927600358218    0.56637854035967   -0.62952896457804
