    26
        -50.46570706  Gyration_radius:  2.62367794885 Dipole_moment: 5.289
 S           0.06121037038189   -0.70173414876312    0.00109803105094
O           1.21825085463558   -1.48944706049776    0.35332797775090
O          -0.71984913975823   -0.34414874743299    1.31001073910874
O           0.41563805572320    0.58894347137083   -0.61211603821699
O          -0.90705142862505   -1.39803653670832   -0.84052694515628
O           3.01723731673098    0.46616151228720    0.13751340670373
H           2.62577849564415   -0.42422765907328    0.19129392455220
H           2.31906228665707    0.96665022826490   -0.30449121978064
O          -3.09365149254465   -0.11205201953519   -0.10841734636477
H          -2.40194103476890   -0.76924850361871   -0.34707804048619
H          -2.93481238536407    0.06450118663503    0.82305658330664
O          -1.47897518556653   -0.81400719236736   -3.35799345996756
H          -1.14607725562249   -1.16491878240064   -2.50151569994887
H          -2.17579244205526   -1.41296321641049   -3.63250277055937
O           2.83135622893628    1.10410322452764    2.71796287726582
H           2.96448814785587    0.96433459145190    1.74909945412349
H           3.69714856293568    1.02237917733265    3.12076961273123
O           1.10602670031348   -0.92854966080847    2.97784560109601
H          -0.08437675487595   -0.52061007655256    2.07532922203187
H           1.45608756645879   -1.46571061821594    2.25080235190753
H           1.69445060454523   -0.13995547630299    3.03204375692554
N          -1.71091494911747    1.34569959619890   -1.82378394898418
H          -1.82596289245326    2.31905455358808   -2.08175149862037
H          -1.71610092984120    0.69909085716331   -2.64700247997468
H          -0.76807837439252    1.15046536546019   -1.33000098922575
H          -2.44315092584006    0.99422592439158   -1.15297311121265
