    26
        -50.47771706  Gyration_radius:  2.36993129199 Dipole_moment: 4.708
 S           0.92245518011252   -1.12620926705572    0.22117697455898
O           2.10073556783668   -0.70862375936117   -0.50470350486164
O          -0.22860678796597   -1.32088870977999   -0.66355932182981
O           0.59044467301647   -0.16404727969487    1.28045676202955
O           1.22633178876667   -2.48206031933097    0.91360967239189
H           0.34198965929501   -2.76240691821810    1.24498076932354
H           1.46115155991489    1.21100311847397    0.94797450512365
O           1.94855427349482    1.91550185754207    0.46369964731410
H           2.66184531950674    1.42986433975704    0.03529641699524
O          -1.90253311894171    0.70889491499882   -0.42271355428394
H          -1.37146580261399   -0.10360603677162   -0.57905729922091
H          -2.13945116080859    0.65994954430889    0.51449756396380
O           0.98815394540171    0.07114904699578   -2.74958367683920
H           1.57023110149799   -0.24390620684666   -2.02014686670046
H           0.26532080151449   -0.56534225837362   -2.74416233544410
O          -1.81186247692643   -0.11634424466217    2.26166180024778
H          -1.80522349327419    0.20941379308751    3.16261705390427
H          -0.87169486476512   -0.10260000080640    1.95438711743142
O          -1.35430409245472   -2.71193024679790    1.33763946974666
H          -1.71311162384401   -1.96029392672002    1.83795445269375
H          -1.32166290250571   -2.40735988210269    0.41807055435159
N           0.08057055875244    2.14908458079133   -1.39185570162707
H          -0.10256334446372    3.04064959993384   -1.83833282029520
H          -0.79517087560414    1.73653694072413   -0.95658732485475
H           0.43181369013894    1.42069608099887   -2.08277250871832
H           0.82805244493925    2.22287524886360   -0.64054788531144
