    26
        -50.46704894  Gyration_radius:  2.49864355312 Dipole_moment: 2.993
 S           0.46524464779050   -1.56598455266229   -0.91438744775091
O          -0.78807039853436   -2.17664200026801   -0.49971782328877
O           1.53734265943066   -1.76200988361192    0.02803690189401
O           0.25419277989822   -0.12200609634339   -1.17860309473764
O           0.90490789142884   -2.20654670313195   -2.26706617427285
H           0.21329377105771   -1.92259374858114   -2.89472600382625
H           1.33614911906673    0.66607428045078   -0.18821897561307
O           1.92308083617370    1.11617485887274    0.46144140391445
H           2.78554718946794    0.71639774213976    0.33339511557132
O          -1.62211845772789    1.44528800589094    0.05128939047922
H          -1.00736102655383    0.99388516768727   -0.55442505262662
H          -1.10947684171091    2.18194507218746    0.43493140303835
O           0.20759287564267    3.13444542197823    1.16526010831017
H           0.36298206529841    3.32841263437626    2.09068893427854
H           0.94469981023438    2.57606384819489    0.86827756264430
O           0.93234868911880   -0.62130550925660    2.34693967788465
H           1.23102798744864   -1.26553332174622    1.67147139911638
H           1.28723497353836    0.21500819451081    2.00081724559091
O          -0.89731682884798   -0.69684117737302   -3.49035501801797
H          -0.64164326780826   -0.27102729095896   -2.65030634443014
H          -0.62098202815607   -0.10712803281358   -4.19544222980693
N          -1.56928038726977   -0.73287744940220    1.50649011063761
H          -1.38046272104264   -1.41641633845830    0.71009327122472
H          -1.75679055865256    0.20421276941438    1.03806959559547
H          -2.33831497736267   -1.04057691515624    2.09048002457927
H          -0.65382779196279   -0.67041895594109    2.03556601959074
