    26
        -50.47468845  Gyration_radius:  2.41775618727 Dipole_moment: 2.061
 S           1.35258509967699   -0.87076896526643    0.61838609562052
O           0.25912541163608   -0.51117640329091    1.52557355387035
O           2.41461472160829    0.09436534560181    0.63464613082505
O           0.82570704801109   -1.10073876056618   -0.73538907938458
O           1.91531639981886   -2.24371964357172    1.11227761793374
H           1.16809470160264   -2.84799117661289    0.97081481609249
H           0.44635532071393    0.21137114349375   -1.60224581999289
O           0.19803154557846    1.02921815175069   -2.10020382005906
H           0.37968862808737    0.84500336058007   -3.02292429066290
O          -0.25306905305730   -3.35440215627696   -0.07198839539479
H          -0.03883430429436   -4.06236824148950   -0.68267001676466
H           0.03634960029638   -2.51547773710682   -0.49810253695589
O           1.64004156744949    2.49256166953640   -0.24320122365648
H           1.24672094654372    2.20385578129538   -1.08340572886013
H           2.12624173059077    1.70842467308166    0.08683621257497
O          -2.15283363730532    1.35986752008215   -0.68061894854824
H          -2.33208899443213    0.44647182094228   -0.37952003545407
H          -1.46395061641164    1.28287791348019   -1.36279633888705
O          -2.11194628937689   -1.10536698494349    0.43203817101673
H          -1.28215200245003   -0.93149009614552    0.91730758525067
H          -2.05352808997957   -2.02662021668129    0.16638592696292
N          -0.47598778958202    2.00576008921629    1.22729128291065
H          -1.26733035489543    1.87857919641232    0.51702899981472
H           0.36806794471954    2.40323036160099    0.71276559770898
H          -0.75326247203172    2.57180144178018    2.02062424963922
H          -0.19195708251520    1.03673192309610    1.52108998439407
