    26
        -50.46423810  Gyration_radius:  2.47228935854 Dipole_moment: 7.227
 S          -0.83568505799688   -1.21399185675000    0.72461095940481
O          -2.17808566194869   -0.71946120380255    0.92538490475074
O           0.16185197330531   -0.29843859697731    1.31539617689009
O          -0.54393995830233   -1.40925761694599   -0.69997428551728
O          -0.68522086098781   -2.57103099070306    1.43902456474838
H           0.30610429217372   -2.66893685001412    1.55965064461781
H          -0.68592449855712   -0.17215141867249   -1.65049645157239
O          -0.73338348808443    0.68909341587817   -2.15877909768718
H          -1.56735589533737    0.66317953408619   -2.63047315001953
O           1.98288448422049    1.21312713200838   -1.65892728229378
H           1.12649244862836    0.99264242439400   -2.05244233128633
H           2.62709424113576    1.16806753032305   -2.36768092406936
O          -2.76079058979808    1.81214375297013    1.24524049228584
H          -3.03456451513467    1.90633586522786    2.15904693982321
H          -2.65899681209146    0.83770292976520    1.10116280402570
O           2.11133954638933   -1.53121834428803   -0.85019397224075
H           2.28209089768043   -0.57996795392825   -0.90248419218530
H           1.13947944742093   -1.61037656240647   -0.91217747251293
O           1.86930815674493   -2.36109491677194    1.67616029930438
H           1.68738961942035   -1.46556700370767    1.98864465942620
H           2.15480607790358   -2.23476079819469    0.74235670558125
N          -0.34084646794786    1.95227841544388    0.19842161722028
H          -0.50245112757817    1.67296906873685   -0.79265348547135
H          -0.00904103499569    1.05427807149300    0.69997948711744
H           0.35120165913192    2.69090635606660    0.26177168905223
H          -1.26375687538641    2.18352962676130    0.63943070061192
