    26
        -50.47296464  Gyration_radius:  2.41758232466 Dipole_moment: 3.140
 S          -1.38367510455112    0.94230345206357   -0.75279663547475
O          -0.86229239110749    1.54606655091842    0.46775859531322
O          -1.88341309642308   -0.39466273052388   -0.56201373436163
O          -0.40244881177485    1.02441259100962   -1.83225067965404
O          -2.60387209449961    1.83904284186102   -1.19459629074925
H          -2.19680406027929    2.69742620830701   -1.23004308527367
H           0.00169177979502   -0.56426482996313   -2.06927750739326
O           0.17861835643773   -1.53100578039193   -2.03253580954300
H          -0.69819820861771   -1.91765513927593   -1.95031627829171
O           2.23017273321165    1.47572514494748   -1.67606856602075
H           1.26123797407471    1.43376839051852   -1.80093154290610
H           2.60760204912212    0.93731256450527   -2.37353907946373
O          -1.22445963804824   -1.83860770051187    1.59224525551033
H          -1.21987334518928   -1.13339801688798    2.27289881523588
H          -1.66852208057781   -1.42350080097458    0.82636241902327
O          -0.96982225602619    0.47797225428261    2.92626926310033
H          -0.11019821279990    0.73530575682395    3.26606149180308
H          -1.06832942154974    0.94983573942386    2.07645679244622
O           1.66946860492682    0.83091696124240    0.88006875472579
H           0.75915948677081    1.18678520122419    0.80057114385724
H           2.11448825082652    1.14531669415174    0.06973892631503
N           1.12089664392110   -1.70549638071638    0.46408576669040
H           0.86692538724143   -1.72910685917799   -0.55833055059614
H           0.20629861568713   -1.87105884737004    1.00823229030030
H           1.82599268312606   -2.39740964487292    0.68994221852942
H           1.44935615630855   -0.71602362060555    0.69200801687258
