    26
        -50.46823478  Gyration_radius:  2.41609670867 Dipole_moment: 7.558
 S          -0.84907248947608    1.62342754764656    0.24265639593719
O          -2.23626775886076    1.28406028031951    0.42940743906154
O          -0.38444418353359    1.22860748491839   -1.10189730242736
O           0.00785942211325    1.00294031787173    1.26059660520518
O          -0.66673331007612    3.15536521676139    0.34655872672291
H           0.31750515449928    3.24895565580269    0.37961277616096
H          -0.08180973148509   -0.50626661445780    1.60881457080854
O          -0.10915316436412   -1.49000293515111    1.79543196689053
H           0.15456582405966   -1.58278738396499    2.71237758219032
O           1.32726232945679   -2.13504683205052   -0.37320217097365
H           1.80491395831958   -2.95674947078603   -0.25201688715705
H           0.87997857086585   -1.93365660690908    0.48007755685691
O          -2.52129712878843   -1.34220316258796    0.41596250474210
H          -2.60989427269870   -0.36220996546608    0.47439638855472
H          -1.87853666696995   -1.57668296695610    1.10344099000998
O           2.22847869498181    0.64252708969942   -1.14465876339494
H           1.29515118540987    0.90982759695857   -1.23915950205300
H           2.20002286986064   -0.27175494803401   -0.84450441786038
O           1.90340696489778    2.75814648895573    0.63127160717084
H           2.30647338156533    2.26633753744841   -0.10404030831183
H           1.50416635111700    2.06782171635997    1.18432219103556
N          -0.92084905827125   -1.23359864913268   -1.63431035741001
H          -0.04534852474897   -1.72477498497194   -1.37991473303475
H          -1.23227689366995   -1.46543165299345   -2.57047130634429
H          -1.66805735588781   -1.42474536765200   -0.88621338219798
H          -0.72604418832883   -0.18210539162826   -1.53453819018628
