    26
        -50.46669407  Gyration_radius:  2.46238487497 Dipole_moment: 2.360
 S          -0.94560420553113    0.65075199484544    0.40263391909784
O          -0.54459692953804    0.95658908982849   -0.97043946697115
O          -0.24803127349582    1.49123938338093    1.36426615608697
O          -0.74191283369066   -0.77603808647587    0.67767336263540
O          -2.45084300805872    0.96534376593350    0.57474027979012
H          -3.01029483810051    0.54675134759252   -0.13656937928055
H           0.46742790124119   -0.83812361469407    1.97535355380773
O           1.18702689277408   -0.55615711328715    2.56855743959180
H           0.90874322479217    0.31654383360437    2.86298493090332
O          -3.84883571101350   -0.29893038784411   -1.23397158536679
H          -3.09760858610284   -0.76459255608808   -1.67324164456799
H          -4.39676698250045   -0.97238738232101   -0.82553286367305
O           3.17123608579144   -0.26717896939451    0.79866712136767
H           2.87421358691348   -0.91681108230557    0.14191301317687
H           2.59754189710337   -0.43888969629424    1.58337106543453
O           1.39187814440252   -1.34762378144703   -0.89873100785509
H           0.64399577041143   -1.19438813056895   -0.29189571655470
H           1.00806501978056   -1.69766788637037   -1.70557134905093
O          -1.50237813649478   -1.34601469937535   -1.86874246454830
H          -1.10789557181490   -0.45137830801115   -1.85045111522918
H          -1.35368865912494   -1.66601229994106   -0.96711331595021
N           1.83465979215754    1.75056979228571   -0.12312096528510
H           2.31647748139925    2.60891648749690   -0.36755578690706
H           1.11122577930866    1.87988438136017    0.64078631651657
H           1.22848407007925    1.40708167573509   -0.88907647758042
H           2.50748107930030    0.95852226235403    0.21106598042816
