    26
        -50.46920079  Gyration_radius:  2.54426014063 Dipole_moment: 3.273
 S           0.46462064256000   -0.45984824601662    1.20043143244689
O           0.23612771748774   -1.56537270354041    0.28218397517154
O          -0.26283597382783    0.73104959655427    0.78288874848103
O           1.87546452195465   -0.21220432792689    1.43635543511693
O          -0.19077821584066   -0.86072730359027    2.57287626668528
H           0.45219223696451   -1.48459626357907    2.96676093668795
H           2.12515159951062    0.27001650551483   -0.19361965671956
O           2.20071324730695    0.69353135798240   -1.06696417506549
H           2.42155183963612    1.61115242433164   -0.88975790828210
O           2.03825553591680   -2.11987384082612    3.23022686704513
H           2.51793486685446   -1.81143213740149    4.00255418839820
H           2.25932822056195   -1.50229797390600    2.50380612754846
O           0.14783898331840    0.88828898896375   -2.81918452250226
H           0.99464454213569    0.71490336259350   -2.36086841060485
H          -0.20298563776203    1.68031173607768   -2.35727109497453
O          -2.76929589001534    0.32049736879888    0.13534391845249
H          -1.86280917825516    0.53152783542346    0.46503435308105
H          -3.21418049550834   -0.11352789305473    0.86463485045070
O          -0.75161152945105    2.66869973637220   -1.02708645795971
H          -1.70291587679180    2.72275077422686   -0.91347094538036
H          -0.44076921567898    2.08283915943871   -0.31308580507924
N          -1.29059238914423   -0.97598794079102   -1.72478780900403
H          -1.59198632736140   -1.74399895728871   -2.31319017542680
H          -2.08311393031363   -0.52425508682861   -1.22956130985423
H          -0.63325808975796   -1.31136732641864   -0.95342950957744
H          -0.73669120449187   -0.23007886524282   -2.28081929919986
