    26
        -50.46843574  Gyration_radius:  2.46812292279 Dipole_moment: 1.082
 S          -0.44436829047834   -0.82919068399854    0.89342458219106
O          -1.02946940700042    0.41658134081938    0.40860748929751
O           0.95915599847065   -0.65940206260886    1.21864142431688
O          -0.67524612059026   -1.91475088349186   -0.05743010230004
O          -1.16095395654704   -1.20582462681655    2.22804035607926
H          -2.05327690176084   -1.47937020039466    1.93636023986304
H          -0.04715029980281   -1.41648332782753   -1.49483787717807
O           0.37669868244589   -1.08994491188006   -2.32258512290570
H           0.44419757131843   -1.84805567782009   -2.90576505372200
O           1.51852563248142    1.69929704283101    2.38994134120178
H           1.33350287675666    0.80158197069268    2.04798656493605
H           1.74305085852252    1.59066806398884    3.31438900667424
O           2.36538400601401    0.14917190365750   -0.93515600825370
H           2.11239331822087   -0.29591271907442   -0.10519743715882
H           1.81643303246357   -0.27707758107518   -1.61865437880857
O          -3.13953685318578   -2.20922458090912    0.79724080480425
H          -2.34018708890527   -2.19225553567585    0.23367216676419
H          -3.35746023485814   -3.13356986380179    0.93749767194413
O          -0.87611647051425    1.47607310512798   -2.21440908795937
H          -1.34469245165130    1.17067592521480   -1.42827798560691
H          -0.43945386900723    0.68591116987993   -2.55588008340393
N           0.85694659524800    2.15520212965977   -0.15931168853133
H           0.54287107722309    2.83650099880887   -0.84629664261220
H           1.57951478022333    1.48782937899922   -0.57450650889974
H           1.22051499343212    2.55216707687155    0.71235180229995
H           0.03872254143755    1.52940255880268    0.10015452694980
