    26
        -50.46796595  Gyration_radius:  2.39179794341 Dipole_moment: 2.396
 S          -0.52373069534634    1.41902269855443   -1.01449514715341
O           0.88765142844701    1.74770326764505   -0.79183031175044
O          -1.10928528082213    0.80661235735742    0.15488829698063
O          -0.72693883835452    0.68346375638865   -2.24274335494434
O          -1.26871297919155    2.80746637692394   -1.19373581359265
H          -1.00431556295598    3.08534821807948   -2.06499667206051
H          -1.12995091304689   -0.86650653200836   -1.73234789476372
O          -1.27380741526193   -1.73321487343624   -1.30018324277771
H          -2.13739302168724   -1.68862853993008   -0.88501566330534
O           1.93492236283990   -0.36240757132738   -2.10563702733417
H           1.26681553494881   -0.51599448600732   -2.77961984298332
H           1.68841114401715    0.49173122751460   -1.70869485523656
O          -1.52213768521715   -1.40702273055740    1.71510027216558
H          -1.48392475927429   -0.71046995772789    1.03624080231584
H          -0.90621617883658   -2.08968989404606    1.43810408485717
O           1.09990112591815   -1.87788032290125   -0.04995893459479
H           0.20165935023753   -1.96280311428842   -0.43427401257812
H           1.62452679519319   -1.53828726305368   -0.80499393315447
O          -0.62556238638009    0.81257208860520    2.94797527484558
H          -1.04553083129093   -0.06669479321376    2.87110678218774
H          -1.08519145321341    1.34501097666224    2.28747966232939
N           1.44838929197979    0.32605768519344    1.35376024429716
H           1.30429185621446    1.00790948104598    0.56492035607357
H           1.29872682754994   -0.63636111829833    0.91516344107697
H           2.38352317925491    0.40678749190285    1.73917778142167
H           0.70387913432853    0.51627558101383    2.08460972766902
