    26
        -50.47026944  Gyration_radius:  2.42723811441 Dipole_moment: 2.786
 S          -0.96576166395699    0.92334618017373   -0.48064771057521
O          -0.05351432701151    1.09691943217087    0.65649920122455
O          -1.60618290401371   -0.37762962370335   -0.43805024254353
O          -0.26656505590373    1.17494279065210   -1.73190840830539
O          -2.09964416711682    1.98141339280942   -0.32721031182656
H          -1.60704312278643    2.82442162250952   -0.38270784086567
H           0.98122234570910    0.13591895900483   -2.00524117747321
O           1.70239726867748   -0.53017156757325   -2.09580560115507
H           1.90393491112837   -0.57978542049204   -3.03171198498869
O          -2.34145352965483   -1.47945132782711    1.88735118096773
H          -2.98512013400906   -2.16684352764155    1.70870340765915
H          -2.21414798274947   -1.00171111307450    1.04048588974121
O           0.26004885525445   -2.31387661554278   -0.63354888776729
H           0.92680621317305   -1.87111719656657   -1.19082130420722
H          -0.54921339514818   -1.78249108229970   -0.75046349447832
O           2.53985909119275    0.04006643069791    0.56564740906046
H           1.78670071642745    0.64368027076381    0.59804721985456
H           2.60552517108115   -0.22700254342596   -0.35840328581816
O          -0.04091903609649    3.59853848766853   -0.61125495058378
H           0.12163606953922    2.92379042085394   -1.29037831009273
H           0.41699323624448    3.28633624873249    0.17571599408705
N           0.31390066063877   -1.27661891926073    1.77655819502655
H          -0.60253756667016   -1.55165527339663    2.17573177517009
H           0.46402100888420   -1.83289768053136    0.87756871700553
H           0.20780636724711   -0.27740568409331    1.45438110021853
H           1.10125098998412   -1.36071666059636    2.41146343067860
