    26
        -50.46862440  Gyration_radius:  2.56415773899 Dipole_moment: 2.423
 S          -0.63966114139367   -1.93219900100568   -0.58562690449958
O          -0.22192425301896   -1.58511606062217    0.77707697974103
O           0.43522365650545   -1.79893502484466   -1.53409651193848
O          -1.84922690114899   -1.21873187992517   -0.96320047225884
O          -1.02064529978488   -3.46971522726541   -0.54650918934109
H          -1.81719230596772   -3.51181666193758   -0.02472194316140
H          -1.12577423885443    0.17766250386274   -1.44666284736795
O          -0.55807062011440    0.95389638485480   -1.66322225371601
H          -0.22813323566965    0.78492646140778   -2.54823527553172
O           1.09446244972371    2.51299921221097    1.94361352927036
H           0.90957030416726    2.39216444902501    2.87597193266133
H           0.21849908664079    2.68250637094517    1.51159080526533
O          -1.23021727485253    2.49230869318955    0.69276358571547
H          -1.12681426176921    2.29911868130472   -0.24551080784680
H          -1.67270397476692    1.70221150663282    1.07091051309709
O          -2.22494199813040    0.08460997210304    1.42025239385441
H          -2.68534535405810   -0.15016319507989    0.60583223745558
H          -1.46540740940894   -0.52459762301890    1.43072869329943
O           2.98315053905396   -1.03487822884177   -1.26315366671782
H           2.09647099338680   -1.38329512247451   -1.49163540236984
H           3.54688042101966   -1.79971771087275   -1.14195120837198
N           1.34132720290143    0.47842580058483    0.23992887426280
H           2.22813012531362    0.13706243045298   -0.16701830065384
H           0.73469101158830    0.82454447740058   -0.53416143160880
H           0.82953511167115   -0.34882945371517    0.62835439495879
H           1.44811734694982    1.23555823561248    0.95868228583464
