    26
        -50.47303153  Gyration_radius:  2.4705667874 Dipole_moment: 4.638
 S           1.04670539233871    0.15450029401345   -0.58986300973140
O           1.47774497440197    0.13886020214617    0.80015984611508
O           0.24128752974222    1.35858159234275   -0.85554786167840
O           0.29319369892422   -1.04371572269425   -0.93703903724834
O           2.30984875955234    0.21190148255179   -1.46884462315171
H           2.01656140784760   -0.15087262687315   -2.35591568560440
H          -1.05015029919425   -1.21860628475977    0.04664422595719
O          -1.69864271444450   -1.16750413399696    0.78581560661776
H          -1.19402893459990   -1.50740954387097    1.54792365493616
O           0.38719579779437   -1.60045189350203    2.47147214114005
H           0.86119123746686   -1.02857663034970    1.82510916786442
H           0.84826390566777   -2.44008186619809    2.46864094246124
O           0.46363527736088    1.28799734400227    3.01266129005338
H           1.07390649391383    1.07599088673446    2.28049701336495
H           0.36000969913335    0.45495574819277    3.48593989932299
O          -0.99684299255150    0.53254993212841   -3.04675858146503
H          -1.54612739613495   -0.15806407166526   -2.66781178936686
H          -0.56449924893646    0.97182996381651   -2.28575041166786
O           1.22933861094349   -0.86142564538181   -3.54069971849252
H           0.43053870411456   -0.29018587048481   -3.61501208259623
H           0.93981322056051   -1.62338289172522   -3.02717271557552
N          -1.41814480057934    1.40694754692056    1.14471489222965
H          -0.78113488936635    1.55971194705412    0.30853258230567
H          -1.72641477805899    0.38576547161352    1.05705103500404
H          -0.80741409803199    1.49329670644163    2.00171184699381
H          -2.19583455772508    2.05738807354155    1.15354138214286
