    26
        -50.47196974  Gyration_radius:  2.42911581693 Dipole_moment: 5.396
 S           0.78140620669646   -0.01759835494802    1.19065291107307
O           0.82702832182565    1.34733899191112    0.64501773077592
O           1.90324540109237   -0.81657497918098    0.77392354404412
O          -0.48721143507979   -0.65079962323244    0.76790245012282
O           0.77053638069819    0.07366987671681    2.72643937674484
H           0.25910123856879    0.91141975142636    2.93043894244337
H          -1.30750377696031   -0.31358582733821   -0.68935912427761
O          -1.59724419099570   -0.18771866778452   -1.61859496516310
H          -1.61897079572004   -1.07709357642072   -1.98405596150950
O          -0.03705227235155   -2.64811827320579   -0.96742465529395
H          -0.15771038443051   -1.99578592331304   -0.24610084252493
H           0.20867438914879   -3.46784394168826   -0.53602896821066
O          -2.53484815258515    0.85402319752259    1.59326228589607
H          -3.02329507335318    1.01080916128961    0.78278695892362
H          -1.84413163838723    0.19809987556382    1.37429815067269
O           2.15619671192859   -1.28542003441512   -1.80986569010382
H           2.35243934491617   -1.15600763081562   -0.85735422900719
H           1.42816073380208   -1.93622834976322   -1.79007976665677
O          -0.54767819108494    2.27381295302426    2.75039629630578
H          -1.43422202403344    1.94359401002623    2.50848537699201
H          -0.07660886664717    2.39982834140460    1.91194418917269
N           0.80092762571713    0.93395127113118   -1.92284738622778
H           1.05123538893248    1.68335719441351   -2.55811964790348
H           1.43548076911399    0.06988755897412   -2.02842573867538
H           0.88515303820422    1.23375693324073   -0.90512955425855
H          -0.19310873890861    0.61922607540036   -2.04216166325947
