    26
        -50.46847881  Gyration_radius:  2.44288825815 Dipole_moment: 7.224
 S          -0.14342575598657    0.04786284623369   -1.25721266157718
O          -0.82760161385529   -0.64703481758275   -0.13851284955374
O           1.04631810191892   -0.67389059123659   -1.64540810893854
O           0.15989775757735    1.42000684843716   -0.85778829835678
O          -1.12039093900892    0.06785325964579   -2.44134783373735
H          -2.00872454181304    0.30561546453613   -2.02372036428334
H           1.37521157292175    1.20663402095663    0.16638895415524
O           2.07313985833983    0.94633324392401    0.82314756004910
H           2.90297990434589    1.01635955210266    0.34714757514299
O          -2.01911580970304    2.62753807188002    0.16595203114383
H          -1.86874590691267    2.31165020694476    1.07055754025423
H          -1.18873048603653    2.42418435417220   -0.30292044075636
O          -3.18583076984514    0.59059032490992   -1.03684766815045
H          -2.97396902820420   -0.08299554124447   -0.38201453879305
H          -2.93327985992157    1.45608700859788   -0.62121129528667
O          -0.78623193203205    0.97076347098494    2.05343679867760
H           0.08391580782618    1.37323673041472    1.98981676848888
H          -0.88004244098489    0.40394632438174    1.26725768691249
O           2.37121772640399   -2.76120467786243   -0.76165195451242
H           1.99150020625537   -1.98562619647309   -1.23575421368072
H           2.08949807032948   -3.53301307441668   -1.25544870621586
N           1.17568878428532   -1.52331583309071    1.25118322019024
H           1.71633447230881   -2.19112328394495    0.64916511760462
H           1.67307792406600   -0.59316378476625    1.24490861293352
H           0.26369453053300   -1.31398463418260    0.73752032840442
H           1.01361435701616   -1.86330928329200    2.19335674977621
