    26
        -50.46508002  Gyration_radius:  2.44429449845 Dipole_moment: 6.370
 S           0.88388100260008   -0.77700664280827    0.91067957284149
O           1.17420282396980   -1.24466488777107   -0.45693691304108
O           0.74111333359065   -1.88291395032319    1.82762596002020
O          -0.33488788588203    0.05091210641407    0.88866941780769
O           2.06701611264826    0.11710434882345    1.32428187245677
H           1.68698340447781    0.98163059636371    1.69192749002620
H          -1.18525905617431    0.38430367633892   -0.43216584664217
O          -1.68930730489420    0.47908146889843   -1.28395671075600
H          -2.30742031881995    1.19931973814074   -1.15301747399948
O           0.79290181424397    2.21196456454538    1.98752239929080
H           0.02334100611906    1.66701126975517    1.76336853895505
H           0.97335389230909    2.75072320495702    1.18161781445663
O          -1.70847783609027   -2.53751043112233    1.33676852150845
H          -2.16492952011149   -1.77352116431194    1.69743674855948
H          -0.76553008312992   -2.42128781020980    1.63109675045115
O           1.03317343481496    1.02740020812397   -1.87144826230732
H           1.27541124359147    0.21832740045715   -1.38335097992397
H           0.07643976448508    0.96873823522106   -1.99649733872816
O           1.35543128614031    3.24624389795314   -0.40636572215879
H           1.25916436070252    2.45367723082736   -0.98421514021379
H           2.26759282906381    3.52599968718551   -0.49522111751180
N          -1.11211441120404   -2.15310008902967   -1.18874975423925
H          -1.58418687176111   -1.29255222834678   -1.51049920284639
H          -1.48739120354712   -2.41739981063277   -0.22431567119407
H          -1.18271148828206   -2.91055775828232   -1.85937219595837
H          -0.08779031888621   -1.87192289113412   -0.99488276686343
