    26
        -50.46847881  Gyration_radius:  2.44289472702 Dipole_moment: 7.224
 S           0.17640044434044   -0.75713586873663    0.99953975309080
O          -0.98911847281294   -0.38683360744660    1.76866969592383
O           0.84283336606069    0.45245359067163    0.45621885385931
O          -0.16250882379339   -1.65543620470375   -0.10159763246667
O           1.18429868678809   -1.44948279945806    1.92788990875571
H           2.05650164247291   -1.40599416345537    1.42051958637950
H          -1.40097666156697   -0.89583139929413   -0.78032987682806
O          -2.11152104112788   -0.30732132089289   -1.14770783944869
H          -2.92922594855459   -0.63668162109437   -0.76956369724164
O           1.96547450536140   -2.06161906980219   -1.70190118843817
H           1.15189051691336   -2.16267653646848   -1.17409653340262
H           1.79671241555760   -1.28567752077129   -2.25879055728578
O          -2.29946337421806    1.83064178611161    2.27778872484911
H          -1.99103715676264    2.18220343344833    3.11453927393196
H          -1.92119450736192    0.92343576833558    2.21177181153955
O           0.71293637289447    0.37609626324224   -2.26424955644274
H          -0.16232637494943    0.00893041549320   -2.41353148932831
H           0.83819438655487    0.39238791363044   -1.29874805207688
O           3.20116633129840   -1.07604112619906    0.40974950830598
H           2.92185085207728   -1.54926554184854   -0.41709419526445
H           2.98405776107822   -0.14925295189689    0.26376778430518
N          -1.18065595192472    1.96478437376788   -0.11880724775675
H          -1.03776831685296    2.78198560257518   -0.70303143434879
H          -1.69459370184234    1.19741335626486   -0.62839072397136
H          -0.25918880246584    1.49992046306987    0.15359558904909
H          -1.69273815715739    2.16899677546361    0.77378954430178
