    26
        -50.45970203  Gyration_radius:  2.46814445115 Dipole_moment: 1.787
 S          -0.36432167601063    1.02030213169599   -0.73441939169798
O          -1.24425375251118    1.99606837727155   -1.56276834265804
O           0.84558567065881    1.70003737986358   -0.32290390768938
O          -1.16157412841140    0.59113422365638    0.42117526836881
O          -0.09123585446811   -0.11985567874997   -1.60698764610059
O           2.04554977138200    0.48695364685823    1.66317382626789
H           2.97685747687908    0.65026149204554    1.50094139762300
H           1.56397600397877    0.96818572764099    0.94860086419635
O          -1.42103559690210   -2.35478941902454   -1.43224228815611
H          -2.30353350827904   -2.24972812427164   -1.79085479171594
H          -0.94447408387925   -1.50665853654257   -1.61675384489866
O           1.85064575805567   -1.90020571841435   -1.28217250210108
H           1.50476058177699   -2.62685989022656   -1.80511214588073
H           1.26639132905979   -1.13612273565696   -1.47163746250197
O           1.37434116239027   -2.02012844309122    1.29899238840795
H           1.65943859333078   -2.08713105614538    0.34939084766442
H           1.65033796299226   -1.10578768325552    1.57821839496494
O          -1.06732312408413   -1.82502945761524    1.07676116405893
H           0.04972613474211   -1.97240122433801    1.24900526784980
H          -1.15427650203972   -0.81071436894557    0.90723864535134
H          -1.26391964743711   -2.22353184683345    0.17433893932431
N          -1.19617381014206    3.44504464902193    0.59151625163006
H          -0.18287537827040    3.40143355094414    0.58939212502924
H          -1.49103502899507    4.30061402801780    1.04560502487462
H          -1.38404712016043    2.72701753783046   -0.90410302116798
H          -1.51753123365917    2.65189143827799    1.13560492895103
