    26
        -50.46874785  Gyration_radius:  2.44904573603 Dipole_moment: 1.939
 S          -0.82412076619036   -1.85755425866167   -0.18707330891107
O          -1.41682584508974   -0.83216684343256   -0.99780511687108
O          -0.90395285239988   -1.54859936832254    1.24765316474475
O           0.53771933517861   -2.19866252264600   -0.56864575567062
O          -1.68335876925575   -3.17210772266348   -0.38848482083998
H          -1.20192605640317   -3.82359551923446    0.11151236931785
H           1.08085189628292   -0.82755793277282   -1.24672271351217
O           1.50288530110793   -0.00215400593930   -1.58927058320155
H           1.99213386908367   -0.26242923209151   -2.37162626447615
O          -2.18711972883290    1.72554481163869   -0.77582479719868
H          -2.16748504554553    0.79003398378128   -1.04745596994701
H          -1.46257653015224    2.13954567750431   -1.28770045644445
O           1.67744978905266    1.15417211885582    0.90862589473835
H           1.75605321378525    0.88678175151013   -0.02165180506460
H           1.86512909142118    0.32612681855407    1.40522564482776
O           1.70440979886802   -1.36066025873008    1.82319032416073
H           2.01289976024259   -1.85152106317874    1.05466623682149
H           0.73664271783155   -1.48576901593047    1.79971271096437
O           0.21164330958451    2.42321193845010   -1.79043919033471
H           0.56402686826221    1.51718367769018   -1.84690045450397
H           0.79599533831129    2.89997232656142   -1.19746069529641
N          -0.92606505227676    1.09090555726186    1.41591301354702
H           0.10617866047713    1.26970343273822    1.24552794847084
H          -1.50247422873071    1.45581545109970    0.58136420429210
H          -1.03823874968875    0.04558484521204    1.43023102515482
H          -1.22987531492497    1.49819537272160    2.29343938523034
