    26
        -50.46697077  Gyration_radius:  2.66570515069 Dipole_moment: 3.006
 S           0.36936553876322   -1.42563091470260   -0.53165059883410
O          -0.35316337128012   -1.25539476103485   -1.79350191855071
O          -0.46695509386042   -1.06903075686414    0.61117945556556
O           1.60865206370957   -0.67117717473815   -0.52754650696102
O           0.70110363511102   -2.94146402302104   -0.37229081724824
H           1.04340922327801   -3.19440911749582   -1.25282467289733
H           1.81450049802745    0.60988864028286    0.39713429754013
O           1.83402877730283    1.44854022577443    0.93187356306841
H           2.70696456636606    1.82135920720609    0.80278331528330
O           1.07345715491401   -3.09581585584783   -2.98480877724829
H           0.52785743451010   -2.30472624236361   -2.79320316356679
H           0.50021172747168   -3.71989872351032   -3.43572023511120
O          -1.23162697884833    1.19922498281991   -2.28013914722311
H          -0.73889698390505    1.48874228289239   -3.04931540459517
H          -0.98476194889496    0.25591013085989   -2.14364489271532
O           0.21750347088590    0.24548984210706    2.93588927273923
H           0.96085886847620    0.70666433148521    2.52301775245429
H          -0.03861513319246   -0.43573057104935    2.29211643983719
O          -1.84094997910272    1.95075154916260    2.76628982519091
H          -1.08471009920203    1.36372249140058    3.01074535601501
H          -2.62490565746594    1.53869826516953    3.13109451436490
N          -0.81640070320375    1.53103817063172    0.34205007601364
H           0.15827312606560    1.84177327450631    0.49493593295640
H          -1.41840290687156    1.90910968457552    1.10431201422144
H          -1.12576978119468    1.72248044767905   -0.62823184760440
H          -0.79102746783444    0.47988461409321    0.44945615729916
