    26
        -50.47250315  Gyration_radius:  2.48733812454 Dipole_moment: 2.882
 S          -1.95630180736538    0.56872316018969   -0.99704929171256
O          -0.59896898144200    1.03042870921626   -1.21638085865203
O          -2.39913761191602    0.80751113422848    0.37124002831621
O          -2.17280544812415   -0.80553078016927   -1.40713554761982
O          -2.87957836254437    1.45734403257839   -1.92855559559442
H          -3.71242233634273    1.00623205415689   -1.84418547218722
H          -1.15555178848287   -1.82032625953575   -0.71846145482480
O          -0.47448090032315   -2.42932755035059   -0.32920067194315
H          -0.87366657951945   -3.30048862521199   -0.32111926942826
O           1.22178518739781   -0.82201197371500   -1.84160604445964
H           0.76601512296644   -1.60433513416137   -1.49774057445526
H           0.55329208762729   -0.10943005807863   -1.79183960399787
O           1.26262388815579    2.22599777154629    0.33045213912067
H           0.64087321822245    2.01344894484437   -0.39001408906478
H           1.95506351714631    1.54257015498272    0.27093860388915
O           0.89023541536112   -1.30705483556243    1.75595560000809
H           0.38907002413567   -1.79255145704411    1.07362439886949
H           1.67971867581311   -0.96432265373703    1.29939984481017
O           2.75103741289469   -0.08550618116397    0.13407257602912
H           2.23400793062266   -0.36983249222652   -0.67487166382219
H           3.67587898319567   -0.21639179869331   -0.07573365533002
N          -0.36624302168802    1.00337707471050    1.99130973671109
H           0.08133747004870    0.04072154482944    2.03183009723905
H          -0.58032616777545    1.35888378203921    2.91576778871350
H           0.31060387689223    1.63346867514039    1.46366676361900
H          -1.24205980494879    0.93840275108197    1.39563620576250
