    26
        -50.46736054  Gyration_radius:  2.56542714461 Dipole_moment: 3.307
 S          -1.15769348222021   -1.08408765894626   -1.28622586771772
O          -1.66836262952169    0.22202889342145   -1.58244186116992
O          -1.28574408804983   -1.42478193812492    0.13664864908457
O           0.21704841730299   -1.29685514594731   -1.73229137287746
O          -2.04203568174151   -2.13431952893512   -2.07232317605758
H          -1.60738559433098   -2.96859163734907   -1.92078430197580
H           1.02719458157847    0.10220168765365   -1.57304618990351
O           1.51087674205370    0.90401145796970   -1.25179523659294
H           2.44260289941356    0.74030329459143   -1.40832454499967
O          -1.18005303336377    2.86340688857550    1.30562269930972
H          -1.00891444751461    2.98147279382258    0.33563544472992
H          -2.13329581895845    2.83483473007400    1.39928542022636
O          -0.69468633422337    2.71363118639198   -1.28788034797319
H          -1.19664608061196    1.90322736825603   -1.49380200045559
H           0.22405859597044    2.46787643438011   -1.44640743932626
O           1.83509594482775   -1.03538324762339    2.50178673746928
H           1.73374042189798   -1.48818022096565    3.33967027557145
H           1.66523461908634   -1.71053031588853    1.80320736552302
O           1.01834123814496   -2.66208743126576    0.53607338439158
H           0.08639743556375   -2.36422183756640    0.54384300205608
H           1.31343319374323   -2.41923946485700   -0.34930004189383
N           0.17912699912094    0.57883523512621    1.12115940604618
H          -0.50470786116384   -0.15143731046186    0.81276410726463
H          -0.33347790941480    1.44748792427136    1.41217243352888
H           0.78802789357871    0.16530820274954    1.85675527431556
H           0.77182398884048    0.81508965060059    0.29999819143925
