    26
        -50.47250315  Gyration_radius:  2.48723574467 Dipole_moment: 2.884
 S          -0.62229724588401   -2.18044786989384    0.03767913327911
O          -1.91509239139831   -1.63749186110986    0.43674498183835
O           0.47849334118866   -1.48746432282935    0.67925973249668
O          -0.48945437704960   -2.26629147998565   -1.40407444465220
O          -0.57716904375530   -3.67055464446225    0.57380275207651
H          -1.21684338376646   -4.08754525400530    0.00683774509648
H          -0.30088507323876   -0.84034912555675   -2.09001966531130
O          -0.12135597961539    0.04901643215793   -2.49377768331304
H          -0.41728799664870   -0.00999950062482   -3.40335106471511
O          -0.67105291810495    2.12115536731636   -0.79855894551470
H          -0.53016215760173    1.43402002276511   -1.47713179057300
H           0.20871325226999    2.28629943756331   -0.41398255297501
O           1.80222187361447    2.04304826173033    0.41080775463833
H           2.02601685598301    1.21033993020511   -0.09813433162106
H           2.59152190710556    2.58475647796195    0.40434561678309
O           0.66087124615101    0.55739036333427    2.43224244845051
H           1.17355776580668    1.17316975717658    1.87718341645262
H           0.74999559661500   -0.30778908351279    1.99145561220780
O           2.16464226993156   -0.16752647557988   -0.91841535770424
H           1.59218490902062   -0.06494949033334   -1.69276787963789
H           1.67543347574857   -0.78019696833225   -0.33322464296705
N          -1.67993949342928    0.82242511638532    1.26729919744168
H          -1.41221358734800    1.40283398658357    0.41870787168497
H          -1.85467578015425   -0.17404195672983    0.94703105912875
H          -0.82321996875410    0.79013101236898    1.89861681124459
H          -2.49200309668444    1.20006186740340    1.74142422616326
