    26
        -50.47196986  Gyration_radius:  2.42891325457 Dipole_moment: 5.395
 S          -1.09309761522772   -0.65928138032198    0.63355870962195
O          -2.21139418260601   -0.03078936277466   -0.01835648577885
O          -0.45793375250692    0.21420509609702    1.63181043015086
O          -0.07264862774837   -1.05516321385972   -0.36185004231633
O          -1.57598751038825   -1.93608424480289    1.34295825001626
H          -0.90025086767735   -2.09958717211723    2.06531839820293
H           1.25865128299272   -0.09751986218909   -0.83100980831793
O           1.87401055911913    0.59273672858731   -1.15992765900849
H           1.69957009663467    0.63717787577269   -2.10469322716042
O          -0.58867024881265    0.04048360215159   -2.75738559797855
H          -0.49566740935359   -0.43614730862684   -1.90625480446133
H          -1.24699448413237   -0.44614967462599   -3.25558785864519
O          -1.71414831086000    2.13357566996077   -1.44235579218684
H          -2.16406517955481    1.45400242031155   -0.89612126709895
H          -1.32237112247668    1.60206301955554   -2.16207662829548
O           0.35056997790384   -1.92016432907657    3.03584827685588
H           0.27218089042875   -0.96286658157267    2.90086355712800
H           1.08578968281005   -2.20870848573940    2.46151143459240
O           1.96598426253070   -2.24164142248599    0.89328175295330
H           2.72187520307410   -1.72906627708708    0.60006517715498
H           1.20482631261021   -1.93473316731197    0.36259037902416
N           0.29785331332499    2.25296192517406    0.20469066635861
H          -0.01661279381569    1.51663268789598    0.90597681558356
H           0.56630571096206    3.11750085584567    0.66117176052673
H           1.08915072101800    1.81530219266928   -0.32774671417112
H          -0.52692591836013    2.38126042858026   -0.47627971301735
