    26
        -50.45848061  Gyration_radius:  2.75375125094 Dipole_moment: 3.749
 S          -0.21912920798057   -2.71486705061819    0.76708427987480
O          -1.59330654131228   -2.27749718646162    0.52116771163905
O           0.48474137968363   -1.88003288580270    1.70878238998865
O           0.50563095084043   -2.88928524407334   -0.48914078350528
O          -0.33803514583607   -4.15759868966746    1.41787999487582
H          -0.92296654878135   -4.59901196842153    0.80977463495279
H           0.79766245276268   -1.60784347276244   -1.28982003536660
O           0.89075261643447   -0.75659125421526   -1.82079640547491
H           0.99109193915136   -1.03121712435689   -2.73336562209026
O          -2.21312034993665    2.57124160089475   -0.83326298438483
H          -2.85597872252642    3.19288119978637   -0.49134904965226
H          -1.33005727835580    2.91043743304773   -0.57321439204877
O           0.25096421818560    3.11327183241058    0.15657093113653
H           0.98924507015110    2.65925534092108   -0.27083823239392
H           0.22071642700580    2.75024242417143    1.04890013000574
O           0.60068772538897    0.74294162219148    1.75583618244544
H           1.38889696167639    0.86007453299680    1.19932555438739
H           0.59247209285054   -0.21364913140100    1.97619530236635
O           2.25595802331956    1.12997952458556   -0.43730257593335
H           3.19626759259278    0.94936344066858   -0.45994777094760
H           1.82644180748586    0.44061867590116   -0.98320407526502
N          -1.13003167170839    0.17167710758740   -0.20474733193598
H          -0.49968103824609   -0.00081661795066   -1.00350375256375
H          -1.52292175804023   -0.76838933003788    0.08176297891803
H          -0.53990056107750    0.51133660882259    0.60189917211654
H          -1.82640042358334    0.89347860180652   -0.45468623111712
