    26
        -50.46891544  Gyration_radius:  2.43222634196 Dipole_moment: 1.426
 S          -1.28167696971340   -1.16043252149758    0.64507219266822
O          -1.85706315090484    0.16117950178977    0.79588301820114
O           0.01539684828383   -1.27258541645717    1.29962935602778
O          -1.22355267834385   -1.61003289892890   -0.73338908217736
O          -2.25291704769813   -2.14735731964293    1.40748742867261
H          -1.81407949746421   -2.98719870322454    1.32162315600602
H           0.27499094190922   -1.49220264605511   -1.39456327054234
O           1.15326372184036   -1.36352566675239   -1.82562507651692
H           1.18442491792707   -1.97669945045808   -2.56136389254659
O          -1.70882208139377    0.99700253353425   -1.72235564278181
H          -1.87830850423063    0.78560054671537   -0.78435891729548
H          -1.81998341839884    0.15583048618679   -2.17374231620767
O          -0.98272721229639    2.43042986060343    1.92181020723820
H          -1.43485429356989    1.60470860194526    1.65572410767973
H          -1.40732071270034    3.13223295805292    1.42451787197785
O           0.94338719804685    1.34887741722673   -1.62560232837757
H          -0.03087010702419    1.38714627945848   -1.75780067883582
H           1.19514250101962    0.44406398426411   -1.88099477964115
O           2.74596009878356   -1.16912494041773    0.53467970654308
H           1.99722465248285   -1.51544751221504    1.03260267615943
H           2.47556205049487   -1.24784870462631   -0.38941097804787
N           1.15758288658674    1.11722342104640    0.97728259042653
H           1.13942758140314    1.28556899216213   -0.08320685684047
H           0.74324898528014    0.16746344137402    1.15137629018161
H           2.11843515988619    1.11123473491022    1.31068871671646
H           0.54812812979362    1.81389302101056    1.45403649131388
