    26
        -50.46829682  Gyration_radius:  2.46696988276 Dipole_moment: 4.544
 S          -0.38165004293487   -1.98860612791559    0.43733932413259
O          -1.45170338868936   -1.29363510291116    1.13846298231350
O           0.91745040845726   -1.70608948204439    1.02777029404288
O          -0.41497200663458   -1.77677153258037   -0.99335271557895
O          -0.64125380543261   -3.53270410358901    0.65962549211090
H          -0.60331067443905   -3.58998742475408    1.60816407217458
H          -1.00916984020658   -0.47065355443927   -1.72581550636624
O          -1.36503679482171    0.36227605301792   -2.12872421863521
H          -1.76067460787930    0.10607753127607   -2.96285730742405
O           1.09445736647915    1.63890234129049   -1.46215454552361
H           0.27845908566390    1.32950733940671   -1.87739902704872
H           1.64218664689790    0.83647065663014   -1.33570137481892
O           0.28236770141529    2.45969089551638    0.91520202578861
H           0.77326604296030    1.86311644127323    1.52344976117772
H           0.69803180364728    2.31964452554925    0.02826190652658
O           1.58429412642893    0.55635690593485    2.26634126596191
H           2.52902023395630    0.58363754302066    2.10098464238883
H           1.27760474785241   -0.29472186305075    1.89345801082241
O           2.22307761576036   -0.80225552566391   -1.11547471257318
H           1.77114534878996   -1.30923362207692   -1.79467309426609
H           1.85559289957171   -1.14392551002269   -0.27853526100781
N          -1.88827899359099    1.18251501965552    0.41928650014967
H          -1.90713510109246    1.09306793335210   -0.60909501634581
H          -2.74673626098805    1.58799981015645    0.77390243006177
H          -1.74944921896090    0.20333173274415    0.79727109234081
H          -1.00758328224605    1.78598913022260    0.69426300957682
