    26
        -50.46894656  Gyration_radius:  2.47890179067 Dipole_moment: 2.550
 S          -0.33460969684757   -1.94700445990997    0.32616988836008
O           0.92659443867043   -2.08861718762929    0.99489380239699
O          -0.19862734250976   -1.19942906655850   -0.93456733240715
O          -1.40895127246491   -1.40865729899061    1.14376646885938
O          -0.80396408356296   -3.39775132785428   -0.10108607722952
H          -1.69884562929530   -3.25471151956644   -0.39262879621758
H          -0.92931920345093    0.33547139073830   -1.14543472207374
O          -1.26510053045775    1.24534220964265   -1.01623758149019
H          -2.18447522969275    1.10909485596736   -0.72329702423833
O          -3.38991999341559    0.14192302361709    0.24725338053940
H          -2.71897439398114   -0.48491003079359    0.59008659664346
H          -3.83169862867763    0.49885837862424    1.01938839333073
O           1.04135635885338    2.56683108795881   -1.44664106387716
H           1.11862234711996    3.11912638622807   -0.66549551562475
H           0.11694154904881    2.25368462040938   -1.46438474694287
O          -0.05892526499618    0.91440113567081    1.43703990442432
H          -0.51450969127569    0.07083418700843    1.58261246355067
H          -0.46150511079660    1.26324550020540    0.62142210027575
O           2.47072535253421    0.01343764286923    1.55604096090011
H           1.67488095811088    0.54558540445542    1.75495492391700
H           2.13750016688033   -0.90176781510115    1.60348685410092
N           2.08488959638243    0.12080299145076   -1.02011973646262
H           2.40153637857727    0.10611974962854    0.00990264800011
H           1.22386463348258   -0.48935459079156   -1.06023360371620
H           1.79827527539440    1.09812938060556   -1.27516690396662
H           2.80423901636291   -0.23068464786415   -1.64172529105069
