    26
        -50.46293834  Gyration_radius:  2.57522736268 Dipole_moment: 3.754
 S          -1.75826060005476   -0.90084466765920   -1.14802185689797
O          -2.62292728032262   -0.30162564350078   -0.16751827772599
O          -0.59197252429829   -1.54325692724111   -0.52922658410092
O          -1.33919463690428    0.00763196633316   -2.20637772199186
O          -2.56631591503377   -2.05659925583054   -1.86744704699113
H          -2.00198649207380   -2.24757381605759   -2.60950005379812
H          -0.84415829890605    1.36217558083731   -1.60244108838628
O          -0.49211779018197    2.21966818580392   -1.22596539314886
H          -0.64340006012505    2.87411391191305   -1.91029760979477
O          -1.77451244050041    1.77928472668967    1.25944957914450
H          -1.40675920500469    2.24978355648074    0.49699508025343
H          -2.32532105601549    1.07812195011884    0.85697455578149
O           1.89056250921049    1.36605728047545   -0.36548685407850
H           2.47056520260155    2.11367124530566   -0.21478968631662
H           1.07446292808714    1.71576007399598   -0.79020022046059
O           1.98774722077951   -1.69605082329348    2.40836046114249
H           2.19091763051770   -1.72945927980326    1.44680113202911
H           1.95655967212987   -2.60606921491206    2.70427542661625
O           2.14317625154614   -1.57156168199260   -0.30042478187668
H           2.30699539874823   -0.65377753828051   -0.54600125027010
H           1.20981905156370   -1.73405549622293   -0.51776837640438
N           0.22422528392277    0.06176815729786    1.40035280133111
H          -0.54219223856823    0.73800089714178    1.64904574281930
H           0.65672578608711   -0.46881491834977    2.17151097361173
H          -0.17565423917876   -0.62910956923694    0.70960956516649
H           0.97301581200914    0.57276128993995    0.89809150430845
