    26
        -50.46820604  Gyration_radius:  2.43550920442 Dipole_moment: 2.466
 S           0.29293507513478   -1.67598260588410   -0.74711074385068
O          -1.00144584232791   -1.35699915217571   -0.18186751440264
O           1.33774930137604   -1.77134126047541    0.25546878308489
O           0.65861155277552   -0.77954805992734   -1.83669778629975
O           0.14678726358847   -3.11484923241490   -1.38790042115208
H           1.02469406944512   -3.28048391717214   -1.71506848281642
H          -0.36449995033800    0.53204762391524   -1.96423303259730
O          -0.88541577937203    1.36568989807992   -2.00230422510315
H          -0.87281847605413    1.64530075114905   -2.91892206294505
O          -2.97853156606705    0.69092287422555   -0.17924855530738
H          -2.75354466290523   -0.24113779172774   -0.26830198130026
H          -2.44576042937438    1.13162501244037   -0.85437266567671
O           0.44904152204682    2.41677524308744    0.14380239859451
H           1.30243649397053    1.96017256507611   -0.02848734787503
H          -0.06328677592437    2.30102143343028   -0.67638057318461
O           2.41465782812528    0.70950235317084   -0.46316199941053
H           1.88325832322933    0.19663773436356   -1.09911225318618
H           2.62688591441761    0.08089334163854    0.23246998019969
O           1.01620797137630   -0.94276469705658    2.75653334048965
H           1.02531479195387   -1.70981351269036    3.32999955328142
H           1.18656197665546   -1.27972690199771    1.84888896681857
N          -0.80889144143021    0.63423010753262    1.57957057954562
H          -0.21659261499582    0.23659459152859    2.32888263038623
H          -1.72537796094537    0.94371524630792    1.89429475846058
H          -0.29942243979535    1.44022172264482    1.07872373622469
H          -0.94955416459796   -0.13270337706119    0.87453492802681
