    26
        -50.46021865  Gyration_radius:  2.64956309724 Dipole_moment: 5.038
 S          -1.67325344134865   -2.01404866926926    0.51130742241439
O          -1.28089858265972   -2.38909459254785   -0.84863957513238
O          -2.76584791875155   -1.10154929090074    0.60880635369114
O          -0.48415786784982   -1.55308629929292    1.24995586188224
O          -2.10311902304087   -3.38163484737407    1.19454301785973
H          -1.54901979289609   -4.01731804049724    0.75316621670793
H           0.99232346042522   -1.24816760072911    0.73368935455243
O           1.87135914841221   -0.98707851369901    0.34898642022701
H           2.52179592359501   -1.57211625954203    0.73893217055239
O           1.56705691801561    3.05452234143277   -0.84949928783931
H           1.58991575499670    3.98618792894148   -0.62889971120549
H           1.70815681133225    2.56608257234215   -0.00196645997931
O          -0.71920998601086    1.73445486271768   -1.25324754009104
H           0.06873005085949    2.32235862734724   -1.21130473456933
H          -0.97326523228157    1.56305161424993   -0.32082249291838
O          -1.16727493390024    1.00246503118494    1.31771776999119
H          -0.90516009620835    0.05814570180361    1.36830467227922
H          -2.12684587169848    0.96243790964879    1.37574424648533
O           1.59485575039366    1.60060952015679    1.37341960389967
H           1.82373958366047    0.70835505558561    1.06573281134072
H           0.65526418364646    1.56009571118786    1.59792237243450
N           0.28519702221326   -0.57440984815072   -1.84864140210647
H           0.52046605694488   -0.70257704776173   -2.82657232450071
H          -0.40401745276487   -1.32223175086951   -1.52182740271516
H           1.11913414008654   -0.65781612600611   -1.24755395783451
H          -0.16592460525843    0.40236201005271   -1.67925339605546
