    26
        -50.47192544  Gyration_radius:  2.43577526478 Dipole_moment: 1.722
 S          -0.63370124607057   -1.84291351202737   -0.60818784683429
O          -1.28350777384961   -0.77239176762219   -1.32430092991558
O          -0.83003771912122   -1.73477323106437    0.84119198465800
O           0.76757108487649   -2.01723257330068   -0.94297887194552
O          -1.35839938793219   -3.18107723131934   -1.04562646222664
H          -0.76190395325752   -3.85003635126874   -0.72596350223002
H           1.11984208017698   -0.72136536286855   -1.94452556057148
O           1.05047424360312    0.10187671411239   -2.47209431400819
H           0.13568818440322    0.09221625001622   -2.77289511692816
O          -1.71413486168316    1.77315430237612   -0.61110143941200
H          -1.71847263755742    0.88415041272143   -1.01698067751202
H          -0.80743953979832    2.10318436992984   -0.74359012070301
O           1.02337009302441    2.12356142241634   -0.79965081335671
H           1.53692624242677    2.83373748155735   -1.18678997331135
H           1.10987208598222    1.34934861412483   -1.42025250872017
O           1.22577982222173    1.37365724862368    1.84855009726926
H           1.29145112910612    1.71706297632132    0.93956543542815
H           1.59154863489593    0.46136998017933    1.81681452900958
O           1.72734181286069   -1.23149077380879    1.49873980510694
H           2.09246518925900   -1.47183623414236    0.64068556566119
H           0.79883450908188   -1.51935924862530    1.43600168131213
N          -1.29770419786379    0.71063950470834    1.74818704382935
H          -0.29634852083723    1.04444263418882    1.94862320717153
H          -1.91189056654900    0.82776019484120    2.54528613958651
H          -1.63064562625815    1.24455732766029    0.88922751452645
H          -1.22697906113785   -0.29824315774289    1.46206513411744
