    26
        -50.45627833  Gyration_radius:  2.76791130692 Dipole_moment: 7.614
 S           0.83650574213162    0.03282285062832    0.35992471109724
O          -0.23061802836305   -0.90077551805167    0.75061538737852
O           1.67123788575509   -0.53629049846845   -0.68894463227643
O           0.10156758181975    1.23828408520751   -0.34675143377356
O           1.56158031505359    0.55591742366059    1.49209138993871
O          -0.86611410457314    0.36608360298798    3.00272833401170
H          -0.73189535885933   -0.22027249459300    2.23209919221967
H           0.01571923678887    0.49508120701527    3.36394514363322
O          -0.11193503432561   -4.39044263707025   -2.23228683980703
H          -0.52803843380344   -4.97743166837934   -1.59681346699503
H           0.82267731825337   -4.60908855560928   -2.25641921363809
O           1.53878925545650    3.10489766337651    2.24180093517210
H           1.65011285076350    2.15171213978625    2.03815643704367
H           2.18402683028529    3.56575846441526    1.70413806642255
O          -1.34999464101700    0.68909650548670   -2.58579707289648
H          -0.89333947106401    1.00358601131993   -1.78113582041769
H          -1.18362557597151    1.34476622232158   -3.26427474822111
O          -0.99350627236444    2.56022383338767    1.49803623032563
H          -1.16442312588685    1.83152367760360    2.14021562367714
H          -0.19849317951453    3.01320325679326    1.84542068535558
H          -0.38660924191549    1.80122460145938    0.37336830367290
N          -0.37433987608116   -1.65716612008088   -1.70061761931567
H          -0.89889479218686   -0.98963479344842   -2.29037448742437
H           0.61681867896104   -1.28304432490643   -1.56022634813723
H          -0.68910893275025   -1.56072534398161   -0.70328160819303
H          -0.39809960659157   -2.62930960085886   -2.03561712886434
