    26
        -50.46297484  Gyration_radius:  2.59290538876 Dipole_moment: 6.137
 S          -1.60395589008795    0.21234829693664    0.17484187472080
O          -1.10216727709923   -0.55084396450185    1.31691860784518
O          -1.29435634889611   -0.42266863454460   -1.08108727152318
O          -1.08958665699737    1.59132242683989    0.23297889821889
O          -3.15423530231257    0.29090596049283    0.30140309902019
H          -3.27783280705439    0.86163176760343    1.08422482915562
H           0.49002981714260    1.70917650332865    0.01439671533087
O           1.48188899984949    1.70333679974225   -0.05902666731581
H           1.76504265705913    2.61101131839407    0.06202436765141
O           0.81829160241501    0.54341526008484   -2.59298451241073
H           1.29933529539719    0.99943266642923   -1.89233034181961
H          -0.06610180988644    0.38285392258938   -2.22721459984972
O          -2.83180174997378    2.23494608697675    2.07249295616405
H          -3.29109635212273    3.04283421027695    1.83217694996802
H          -2.04222809931514    2.17970744151651    1.49487238968172
O           2.10070334173395   -2.75041628066092   -0.11368753524020
H           1.77025880131766   -3.59370694084757    0.20016204444493
H           1.57357014569724   -2.55024106980595   -0.94370314870344
O           0.56055272199950   -2.14749583797459   -2.11071846997174
H           0.92269290090676   -1.37772577456950   -2.58257064991294
H          -0.25738780857841   -1.79517847738292   -1.72090607915445
N           1.46829945393750   -0.63483136453869    1.32251144967593
H           1.86634314158407   -0.63487635145519    2.25550167979335
H           1.72176064364457    0.23225525589657    0.81329480428517
H           1.78211311624461   -1.49216327947766    0.77337208044143
H           0.38986750337769   -0.64502994131379    1.37305651950182
