    26
        -50.46691542  Gyration_radius:  2.51921520869 Dipole_moment: 5.469
 S          -1.52710836850943   -0.36723381581237   -0.28904327068088
O          -1.24469477377772    0.45736022729362    0.91013828624128
O          -1.51228461149362   -1.77283643730105    0.03145183237867
O          -0.57517386949294   -0.02094476977091   -1.34468074571812
O          -2.95032392515722   -0.00681865951089   -0.76880006884250
H          -2.95476239035277    0.95800114281994   -1.01316330600662
H           0.79196611803896   -0.78054131221365   -1.37120239551486
O           1.68930538673337   -1.22369532527325   -1.37532051456493
H           1.90224885780047   -1.35290376408760   -2.30090325379461
O          -2.89678868872554    2.56060189967999   -1.21934332112719
H          -3.41351276076353    2.99250335550400   -0.53607997321370
H          -1.94559386779094    2.73700551796783   -1.00497094846513
O          -0.37744750278267    2.55404102892915   -0.43795846438377
H          -0.01386649473494    2.00790528625389   -1.14473779906208
H          -0.65016684028342    1.89507380973804    0.23307723770677
O           0.78676756348567   -2.80824667459544    0.71114188940477
H           1.27732842726178   -2.53989261572847   -0.08225189618466
H          -0.15516289401828   -2.64558489258181    0.47029389149165
O           2.95078580214456    0.29159478502996    0.46207737841486
H           2.55540025463567   -0.18168896724097   -0.30104600892275
H           3.85404737105167   -0.01888129484141    0.53904507574924
N           0.89234690160351   -0.53839984538675    1.99805534281385
H           1.71248230685290   -0.05410601841699    1.57369467370428
H           0.91746325320257   -0.50573432018396    3.01103827173786
H          -0.00569395698249   -0.09122517748389    1.62737654059355
H           0.89243870205532   -1.54535317279547    1.62211155623429
