    26
        -50.46877060  Gyration_radius:  2.51421158402 Dipole_moment: 1.706
 S          -1.14092739457536   -0.80675583971961   -1.33196984779296
O          -1.64330505606771    0.56333072846583   -1.32417035400765
O          -1.04640529998109   -1.35069215443940    0.01140283572364
O           0.07018490043431   -0.94478734821358   -2.11198376767781
O          -2.24295202775925   -1.68395465584178   -2.05829898937922
H          -2.14958485985541   -1.44758222528690   -2.97597802726226
H           1.08004651766256   -2.00460845662425   -1.19406926317751
O           1.36336424064831   -2.53225961535141   -0.42394411788509
H           0.54958303730324   -2.61588240145588    0.08656028824744
O           0.82879045862921    1.55839081898765   -1.26289760824146
H           1.21504653506759    0.83533605037650   -1.76817433860223
H          -0.12678400795711    1.37686189596504   -1.31269120859290
O          -2.47795788036461    2.11819946655518    0.65066959643000
H          -2.17679503420371    2.99234537070747    0.39425031154251
H          -2.33063709544041    1.54559615518492   -0.13362757944038
O           1.56385423056604    1.37690886527449    1.31109837252507
H           1.39788148531451    1.58852581495529    0.36615525526991
H           2.13712420724063    0.57961921420256    1.30069434063814
O           2.88317065500299   -0.93909936288834    1.08421604642698
H           2.34342041558844   -1.56493917970330    0.54449751026228
H           3.78087794375981   -1.01425056899629    0.75913101078066
N          -0.78305651810644    0.47017430265631    1.90855837745826
H          -1.48380024253849    1.19643947604495    1.63102798163984
H           0.21832044551658    0.87105395043303    1.75749990671224
H          -0.92434581546148    0.15669401928246    2.86210986657277
H          -0.90511380067379   -0.32466428043567    1.22993340178315
