    26
        -50.46802110  Gyration_radius:  2.47943093756 Dipole_moment: 1.701
 S          -1.38802275717241   -1.08493543234291   -0.12305428918390
O          -1.76865534488618   -0.25225707003631   -1.24455086108028
O          -1.42955366376579   -0.37058944013212    1.14199265299340
O          -0.10968573866438   -1.74619277012372   -0.35646178632857
O          -2.46895777443770   -2.23320553835515    0.00269319903111
H          -2.47628171380085   -2.64705853987347   -0.85511856724358
H           1.16259711776624   -0.63447037575897   -0.46709345610555
O           1.76541999794119    0.13614213014240   -0.38921993517577
H           2.25066829304880   -0.01448662299198    0.45251676868441
O          -1.43202727817958    2.47577600376312   -1.67691121468030
H          -0.77142851404752    2.17067751905424   -2.33106307211390
H          -2.02621277708324    1.71495648651688   -1.59896924761510
O           0.27648394826702    0.72968838377829   -2.80305444213467
H           1.08892089674514    0.55255532377462   -2.31841505614240
H          -0.40761544820643    0.17634027749223   -2.38939657140530
O           0.44660815168636   -1.99524032516370    2.23702842258411
H          -0.33225017698807   -1.44881873102801    2.40291214649594
H           0.38352417074869   -2.17411842351277    1.28184904593818
O           2.55482837802326   -0.36216892313896    2.10980216171816
H           1.79329371927512   -0.96926503106716    2.27669013889611
H           3.34090525678251   -0.85210165762549    2.35419237731854
N          -0.08492811690162    1.79592491618699    0.47710358422027
H           0.76485665539673    1.27277185515981    0.09868123808617
H          -0.61493639133157    2.23057557069093   -0.34245592799940
H          -0.69893202275737    1.04741269336938    0.88498725454767
H           0.18138113251109    2.48208772124152    1.17531546668919
