    26
        -50.47418091  Gyration_radius:  2.4100621095 Dipole_moment: 3.477
 S          -0.42689969993947   -1.88057552038563   -0.34363846824421
O          -0.98879985527126   -1.49193661539885    0.94280175795442
O           1.02019975632141   -1.86615901024411   -0.36504703156375
O          -1.02171245018902   -1.12715395674495   -1.43712586994062
O          -0.84834355808857   -3.39033827642188   -0.56199442499241
H          -1.79091882597584   -3.35700660128279   -0.44077315300626
H          -1.39222502270819    0.43123564071169   -1.30525184376976
O          -1.59981878790420    1.39728427482674   -1.21546064188947
H          -2.23812522308122    1.59793486249926   -1.90121088150035
O          -1.65202729050775    1.03387449108915    1.49619038204734
H          -1.54731750188992    0.06533024033795    1.39177852443960
H          -1.83997900626650    1.35321211266800    0.59757115117241
O           1.07878505032858    2.01758283706097   -0.94498809220812
H           0.12117020147926    2.03308423516566   -1.11116467701936
H           1.40794488045626    1.27037400774870   -1.49674978467484
O           1.40157074551230   -1.10294707081369    2.10413553945279
H           1.61209971466667   -1.46125420716754    1.22033433690186
H           0.46336601332887   -1.33448644409157    2.18690788394238
O           1.48567981188683   -0.19955820660198   -2.36924736349930
H           1.50343076606665   -0.87007039321358   -1.65980740623810
H           0.63514625657012   -0.34054077779309   -2.79529568120261
N           0.94556082470927    1.46207566648397    1.61786715954229
H           1.14514259372526    1.69981698419799    0.59606769905226
H           1.28969830768407    0.48602344483754    1.84671402762415
H           1.35054837487855    2.15140099662972    2.24071364273049
H          -0.11417607579475    1.42279731590160    1.70667320488910
