    26
        -50.45627803  Gyration_radius:  2.76872310752 Dipole_moment: 7.617
 S          -0.42508647763821    0.56725969824882    0.57191602357657
O           0.96131414372811   -0.13429500334630    0.85102324971978
O          -1.39648675768111   -0.29330786109839    1.23256794750008
O          -0.35666623427623    1.91118673209256    1.09178198312143
O          -0.59439721454836    0.53103652844541   -0.88864917163469
O          -3.65859912852544   -2.77130182656235   -1.79638227153317
H          -3.89471816480739   -2.37181444198438   -2.63666657938949
H          -4.35939099229251   -2.56549881733333   -1.17317762441109
O           1.79551802871660    2.98176363746179    2.22400522960593
H           1.80045709056349    2.70951739347217    3.14251499268480
H           0.93599076733871    2.68142915078662    1.85872462809935
O           0.88724733767634    2.68772281711757   -1.37135205189983
H           0.29959779239508    1.90663898824354   -1.35391539392318
H           0.51608129341841    3.28344351531436   -0.71398032078410
O           1.23696921959542   -2.72935721518360    0.06889033282641
H           1.66372242412501   -3.24375906565297    0.75529259009929
H           1.27148407443765   -1.79758215794254    0.36134235258355
O           2.72941141583901    1.52278729556071    0.15946434349348
H           2.67384749179116    2.12756193995709    0.92693210916605
H           1.72418570490448    0.50321257325205    0.55920290103847
H           2.24120967315758    1.98914133594106   -0.55941210220742
N          -1.22515148218617   -1.95109411752977   -0.68764032178359
H          -0.39820497839659   -2.55974701986898   -0.56774266951131
H          -0.93745365245590   -1.06749763953098   -1.17736432505550
H          -2.03023062219119   -2.41163834324377   -1.13207166244859
H          -1.46065073268615   -1.50580811661417    0.25469581106713
