    26
        -50.47074729  Gyration_radius:  2.49917360099 Dipole_moment: 1.714
 S          -1.59279521279771   -1.14979436393135   -0.22962543493253
O          -1.91557403235015   -0.21900316500462   -1.28491587593575
O          -1.64198661126484   -0.53861916546210    1.09757863162803
O          -0.33881917857494   -1.85300273253732   -0.44070952230144
O          -2.73037684695632   -2.25004602265599   -0.24969530513087
H          -2.46486132474996   -2.84390028249152    0.44491958508962
H           0.94797295726936   -1.01757774342664   -1.13225234024907
O           1.56466946938877   -0.35681550703497   -1.51460142502426
H           1.07545864845812    0.01092445570287   -2.27910378909599
O          -0.28595999013387    0.60626059506773   -3.19928446814541
H          -0.94887217455178    0.32000121444412   -2.53381396110696
H          -0.53620372867614    0.17888827788593   -4.01961589418763
O          -1.20637527857372    1.91684670752282    0.28591518548164
H          -1.44520804855947    1.08879784145394    0.75612892719456
H          -1.59149743529678    1.78831975163698   -0.58830486376287
O           1.95982365911851    0.56913874936941    2.61444378359080
H           1.52388654639941   -0.31343508688760    2.48665563462121
H           1.53583256246851    0.95741297146033    3.38147226770284
O           0.53605808169647   -1.59582747731435    2.13615919290522
H          -0.32380670443459   -1.17654552333510    1.92516597434986
H           0.77425852312583   -2.03169887775391    1.30957233455204
N           1.43354018630457    1.60217583952421    0.20738416706497
H           1.98026151119372    2.41295369057913   -0.06042388625200
H           0.40064216371863    1.83144873442415    0.22525682525548
H           1.57448662287189    0.80259025710389   -0.50074700646941
H           1.71544564490548    1.26050685165825    1.16244127314946
