    26
        -50.45984624  Gyration_radius:  2.5484060104 Dipole_moment: 4.874
 S          -1.81651073769480   -0.61668174737591    1.02464807741989
O          -1.94673672234848   -1.43678311983587   -0.16805749108918
O          -1.81348197260100    0.80548854117300    0.73321028303276
O          -0.69216068742871   -1.01027991718553    1.85396440282395
O          -3.11455951537603   -0.87409723181591    1.89949470439146
H          -2.96256852174808   -1.75813340249923    2.21751194582654
H           0.62925616173705   -1.17564099124412    0.93629753602361
O           1.33292793495816   -1.26220419056381    0.24833599585066
H           1.17637080892408   -2.15682610431087   -0.10646844401493
O          -0.16249712057452   -0.11676045630407   -1.71318698418494
H          -0.98990551370401   -0.45228223291223   -1.33079459115371
H           0.52889168915957   -0.46979867881898   -1.11811316745535
O           0.26725116985471    2.45702186611926   -2.03031540609157
H           0.97153169796700    2.51717012430477   -2.67695831401279
H          -0.01607281883105    1.50664056909632   -2.02071625431258
O           2.62221405772123    0.94108081828784    1.01613583960814
H           2.28391260680640    0.03819231216917    0.84868517893980
H           3.35432917305552    1.06707391157837    0.41026074339738
O          -0.10588749033654   -3.29900861161152   -0.80076896334038
H          -0.18682792237243   -3.36530732731829   -1.75405876846604
H          -0.84100442527866   -2.71732872645798   -0.51830681234698
N           0.30928407574640    2.29091426049350    0.62553467631759
H           1.19209128594182    1.78718190376369    0.87657911058377
H          -0.53930693536267    1.64707184725666    0.74308935232170
H           0.18455426256167    3.11732290516530    1.19996644136274
H           0.33490546919599    2.53597365883646   -0.39596911141870
