    26
        -50.46908707  Gyration_radius:  2.36580478641 Dipole_moment: 4.961
 S           0.73843673680030   -1.04961035930420    0.78117902008373
O           1.66396393484050   -0.19517441560114    0.03201695432273
O           1.10845355464219   -1.13992635411155    2.18623195084192
O          -0.62742479986511   -0.51869308416183    0.66059897286887
O           0.77284308199982   -2.46035836587428    0.18631988743809
O          -2.50269681249514   -1.19548181675615   -1.13455848214223
H          -1.94016770075629   -1.04102501342200   -0.35190571776102
H          -2.74678070416134   -0.32479326036423   -1.45821475506248
O           0.92675677459371    0.28606205298067   -2.41081258102917
H           1.69529829165858    0.42503606974116   -2.96604954409731
H           1.27260391273316    0.11817253943723   -1.49658511158215
O          -0.91150955635906    1.69013908981114   -0.80965602081075
H          -0.90529075589613    0.86938057161797   -0.27556006927991
H          -0.42896872485693    1.45755747841856   -1.61476764126269
O           1.05233515621112    2.23769905120200    0.90237875767131
H           0.31755719107576    2.34222586864657    0.25289130960246
H           1.51611041039523    1.43091302749590    0.59017860741442
O          -0.20813276377769   -2.17817427745788   -2.14605586173625
H          -1.14794933166635   -1.99467897865851   -1.93569110873431
H           0.16672405204103   -1.32688539845984   -2.44271605094625
H           0.40473261471362   -2.42553596724006   -0.76585999074606
N          -0.06193870394051    1.01802920535740    2.88357160651252
H           0.44894290650231    0.06861466039645    2.73734087402688
H           0.03879636462773    1.37410953772272    3.82878492505492
H           0.39480377592396    1.66737461231793    2.12888438261644
H          -1.03749891506262    0.86502351622113    2.63805569693622
