    26
        -50.47201773  Gyration_radius:  2.51754899351 Dipole_moment: 1.420
 S          -0.59220020861555   -1.69187112798221    0.88586403017973
O          -0.96983474991046   -0.29222284173286    1.08337032419159
O           0.84009733565720   -1.84049713210393    0.73695389907841
O          -1.36966914044348   -2.30989222083323   -0.16657741318439
O          -0.97395678979298   -2.44674288517862    2.22313793758889
H          -1.91914930013832   -2.51880711866830    2.14497153447692
H          -1.21416457712044   -1.45300699605317   -1.53003520203773
O          -1.04599331670713   -0.88488503001602   -2.32281074946291
H          -1.37199563107286   -1.37780111725026   -3.07770471219811
O          -0.35144059159044    3.34751975333778   -0.52492644948504
H          -1.02695845853938    2.66689782165699   -0.76742770601538
H          -0.81860176483989    4.01703397935683   -0.02417416993453
O          -2.00717054524584    1.29366611034190   -0.88156632691284
H          -1.75942700879604    0.70988128676385   -1.61422531817880
H          -1.82707798042987    0.76481413536466   -0.08545252154460
O           2.41417828578422   -0.20695555339104    2.18578810188940
H           3.14932064654678   -0.69586937564760    2.55693495058926
H           1.85085746391758   -0.86714606174348    1.73405437442560
O           1.55001586878704   -0.53778797369420   -1.52525270570749
H           0.71675378924956   -0.59537206484746   -2.02470806345362
H           1.47080249059167   -1.20605144979264   -0.82151307925006
N           1.06822091887379    1.25721765084012    0.36766124356608
H           1.38625086108798    0.71946774136814   -0.48401871309691
H           0.74132555376371    2.21091654596773    0.10678502522513
H           0.25418447011599    0.71327667736468    0.74704213381024
H           1.80563236886412    1.22421724657413    1.07782957545410
