    26
        -50.47373667  Gyration_radius:  2.41743009577 Dipole_moment: 3.366
 S          -0.59381499743869   -1.52688496741628   -0.16802452326280
O          -1.83260162829615   -1.32994260717265   -0.87087219385549
O          -0.60058835151421   -0.84271175249953    1.14463138420052
O           0.56715289893866   -1.08567250154593   -0.94745572100256
O          -0.41510774426797   -3.03818973048243    0.12407535881684
H           0.41877298894009   -3.07833990822626    0.64516534461941
H           0.47052079376893    0.28337878490973   -1.77056699027216
O           0.43219415677249    1.17861228858022   -2.19915918747308
H           0.88000845146150    1.08727634714799   -3.04135887854357
O          -2.26877128305788    1.16728309199043   -1.63606614626852
H          -2.29139731839479    0.19713200936965   -1.48242764631245
H          -1.42666878260202    1.32394950762281   -2.09568277679198
O           1.07048430464686    2.35835649322222    0.21549558339234
H           1.57767148245718    1.62840014618093    0.61915926750019
H           0.99563183633356    2.13456031701258   -0.72891622076007
O           1.90880413588981   -0.13219455402831    1.08492134821496
H           0.98702228381473   -0.27855106063482    1.38611498215464
H           1.84945126288010   -0.43416214729358    0.16050864645441
O           1.73162898632960   -2.82649904636601    1.66385318230406
H           1.40720754344697   -2.87755982608928    2.56565920732634
H           2.05797368475533   -1.91483155305321    1.53778649352417
N          -1.40395703130563    1.62496202029522    0.78365396119304
H          -1.20619416888056    0.62052484692131    1.04757086633852
H          -1.88741658819464    1.57946390806522   -0.17210689268564
H          -1.97090949530344    2.09344479606304    1.48082436095705
H          -0.45709742120356    2.08819508740378    0.65321719022112
