    26
        -50.46114210  Gyration_radius:  2.6925780297 Dipole_moment: 2.323
 S          -2.28610512791366   -1.01756833101653    1.16571958906750
O          -2.71272611951808    0.23155720113663    0.53846983203734
O          -1.83039550892091   -0.86828076253673    2.51524204212339
O          -1.29095765532285   -1.69135093261627    0.31644295783357
O          -3.57168309780025   -1.94773534944749    1.16653222865668
H          -4.03880169035735   -1.68779784940571    0.37739952447927
H          -0.58587083438404   -1.14143890420446   -1.04997947320122
O          -0.07126029685160   -0.84882228345875   -1.84139550545264
H          -0.33845398535891   -1.42571753311751   -2.55793524623848
O           0.41992640111779    1.86617303360195   -1.63892579653246
H           0.21953726864602    0.96018089593891   -1.92874891349542
H           1.39491733008620    1.89886049825724   -1.50973019903801
O           3.00795757328672    1.61030017070074   -1.04578236509949
H           3.73038386950650    1.66312119693660   -1.67197356399290
H           2.90477705701686    0.65309779185261   -0.82080849200518
O           2.40469013310450   -0.93064759299000   -0.57311555938688
H           2.09895188032030   -0.98514859626725    0.34172900619675
H           1.59908972696269   -1.00731842243921   -1.11284052168875
O           0.74638220884328   -0.75522435801193    1.67951959454222
H           0.06411517804026   -1.24977730491695    1.16862138297815
H           0.46022316527849   -0.86484200959864    2.59184951091459
N          -0.45790052128119    1.52782937132105    0.79396338060003
H          -0.10462774613971    1.77462201687408   -0.19640822151355
H          -1.43316327790520    1.11862743298375    0.69723134635284
H           0.14278786482756    0.77380043880248    1.19820832162757
H          -0.47179381527375    2.34350016165251    1.39671512019608
