    26
        -50.47444122  Gyration_radius:  2.41409437752 Dipole_moment: 1.594
 S          -1.33152292669375   -0.69451944863578   -1.27450459792081
O          -2.08225442183415   -0.71121907387299   -0.02224590871545
O          -0.15823710034197   -1.53389826464964   -1.23919749701014
O          -1.05388854484066    0.66572703284265   -1.71212239976928
O          -2.29699032127332   -1.32502374630298   -2.35845682976120
H          -3.09012915620868   -0.81505686844207   -2.23428771770985
H           0.40374759825246    1.30051221370240   -1.42864530589882
O           1.27994351790628    1.71237186345961   -1.21501170617746
H           1.44940404028916    2.34970583024393   -1.91019220117600
O          -1.88127332825664    1.84129297911643    0.65545286038685
H          -1.73491946284530    2.09472763591996   -0.26223846385214
H          -2.07914159798577    0.88731281523679    0.59540998218705
O           0.65231418401271    1.87733134534442    1.47827555061332
H           1.01814468248821    2.01265253820775    0.58831339055107
H          -0.32381512863541    1.93372989596974    1.35344525402256
O          -0.54512348545510   -2.32505105295338    1.34829069228785
H          -1.25504578319558   -1.74471418898216    0.99726191625466
H          -0.19613226117120   -2.73994657690578    0.55080559906887
O           2.33372514809024   -0.75854932428319   -0.69050024461124
H           2.23721429937202    0.17152152366782   -0.95810579768324
H           1.51834525257587   -1.18339407472681   -1.02522603196590
N           1.43721213415317   -0.60910616612880    1.78183449407145
H           1.95229591455867   -0.72444578667110    0.85622134179370
H           0.62373523471595   -1.28598076181365    1.75621182351940
H           2.04189409360104   -0.79335943755239    2.57406520995569
H           1.08049743872134    0.39737908820865    1.79514660753867
