    26
        -50.46796605  Gyration_radius:  2.39140564559 Dipole_moment: 2.387
 S          -1.35882907196717   -0.43122150516303    1.13430400949826
O          -1.23780224382528   -0.53607825110020   -0.30090452759909
O          -1.03158438239473    0.92069348263405    1.59782482763546
O          -0.64615537258433   -1.44993717315659    1.87264725884733
O          -2.89808815024089   -0.63810586457242    1.45445533145352
H          -2.90934656286805   -0.75750047090111    2.39877893509153
H           0.46951971958899   -2.05242083066700    0.76917559831518
O           1.11191385728641   -2.25199534776040    0.05775475708006
H           0.62621335882906   -2.72575137346217   -0.62033171283007
O           0.32687367483867   -0.85608739232612   -2.52941498976197
H          -0.18192195526776   -0.92206628684707   -1.70226704396162
H           1.24415906156796   -0.73173322583613   -2.27437002381761
O          -1.38532631341065    1.22323905974146   -2.51176909569584
H          -0.79233240236624    0.55201871113936   -2.90257841357561
H          -1.96962459381274    0.70861693998504   -1.94159632008546
O           1.47315174873834    0.38927421407173    2.44571123290891
H           0.55734652349071    0.67954109979537    2.28750111404982
H           1.39083812666971   -0.52961310521694    2.71607968167401
O           2.16192813242007    0.21236060722495   -0.14512427853828
H           2.19945982489096    0.37788455061976    0.82014088848608
H           1.87608175487320   -0.72473548493862   -0.19077655383717
N           0.19970201408562    1.93683420532392   -0.49768319333462
H           0.50545333624556    2.90263810298723   -0.44051761365715
H           1.03535657283306    1.27144036087532   -0.49307802303825
H          -0.36430123100549    1.66799442338839    0.34939870315152
H          -0.40268544656564    1.76471057421459   -1.35336053847576
