    26
        -50.46264174  Gyration_radius:  2.40607308969 Dipole_moment: 3.514
 S          -0.72545765995844    0.45962288201933   -0.83160285366905
O          -1.53582639836306    1.41789038687141   -1.74157938166635
O          -1.65931796565364   -0.30659335893388   -0.00483635765186
O           0.05498429351855   -0.40554278506396   -1.69383783083408
O           0.13396223567875    1.28614294505254    0.02614704212784
O          -0.79039161905303   -2.73754633510962   -0.43481062623829
H          -1.25191719237493   -1.88368899027596   -0.24845467504448
H          -0.52169273585845   -2.65788400746192   -1.35575871401043
O           1.31650770336965   -2.30666243385269    0.92496347282783
H           0.96146266380405   -1.54097560531397    1.50820760620608
H           0.48229712765190   -2.63760147633336    0.41624525351655
O           2.78429884092493    1.35768871468263   -0.14955031589776
H           3.03582843929668    2.01852774876149   -0.79638837226873
H           1.81089974101301    1.42860741166430   -0.04712333604924
O           0.15284176386647   -0.34765753260234    2.07280824563832
H           0.25605892168503    0.37534383179078    1.41104761115040
H          -0.77089659591663   -0.60836978438163    1.97987557738424
O           2.44585139820493   -1.13979564652996   -0.93942287280151
H           1.60701092515722   -0.88954319196504   -1.39846496757266
H           2.80041775837400   -0.27970695557409   -0.60974686208582
H           1.92568113975250   -1.83658254147630    0.14228697635727
N          -2.59572761524292    2.34910894524461    0.45053927324042
H          -3.42145335626863    2.83346027268760    0.77867556962230
H          -2.05497549976129    1.94766390721643   -1.07866175347515
H          -1.78260278851729    2.73550850362736    0.91336581053029
H          -2.65784355528818    1.36858508528798    0.70607650066962
