    26
        -50.46336327  Gyration_radius:  2.49327646833 Dipole_moment: 7.925
 S          -1.58359322298833   -1.21978732067389    0.59152246647349
O          -0.44304251455453   -2.01618880168972    0.24196554946655
O          -2.22916512955292   -0.56806827666932   -0.54538648751554
O          -1.30094667794520   -0.23239489105324    1.63808195639015
O          -2.66739415483475   -2.19532951721347    1.19956629295189
H          -3.42888051822204   -1.62945301660711    1.26536924273675
H          -0.59207771056604    1.14810120701475    1.26794741418519
O          -0.14394348202690    1.98813009625849    0.97890849679561
H          -0.23529602969536    2.60145365663754    1.70976325331242
O           1.72316389461459   -1.21957070153581   -1.18612311957749
H           0.94752625736409   -1.65139745775612   -0.78975158621523
H           2.07812630975024   -0.64010186862888   -0.47513366846918
O           1.13579200364738    0.57019837399151   -2.93002843310080
H           1.36597642225336   -0.22390718635602   -2.35115527757331
H           1.93154461612718    1.10506035985985   -2.94873921561141
O           1.02533217573906   -1.30540365216169    2.49499164776271
H           0.14975482516519   -0.90397840785282    2.36081989936297
H           1.01391707954928   -2.08300364401279    1.92805118628986
O           2.25371529062149    0.46338473128116    0.84392080317513
H           2.00959927190944   -0.16288224297243    1.55654313798000
H           1.55786054002607    1.13408205341882    0.85415536194401
N          -0.91660609482986    1.42913625429247   -1.55356245420313
H          -1.52509653410768    2.04795799304403   -2.07867776695098
H          -1.46616792776633    0.57083359079377   -1.22664289885645
H          -0.08922221807292    1.10856365294166   -2.15656732376275
H          -0.57087646129139    1.88456497510009   -0.68983846703252
