    26
        -50.46494153  Gyration_radius:  2.46138676078 Dipole_moment: 6.858
 S           1.35530123323160   -0.35821667691781    0.93748783676911
O           2.25332154944475    0.77437994830804    0.92885945133174
O           1.12998599758584   -0.86855697028167   -0.42672802328614
O           0.07467250231467   -0.04457397625995    1.56402402539176
O           2.01932986038343   -1.49600260476995    1.75065220583667
H           1.29275370161012   -2.16400858500802    1.82026473755212
H          -1.27703524229567    0.17090987896070    0.92918333797598
O          -2.16273784572852    0.36655613531079    0.47975921095399
H          -2.75007802170563    0.62036597937749    1.19335778534522
O           0.09372513357460   -3.27115208462539    1.68311936611975
H           0.47262888709748   -4.09254394718496    1.36306415814848
H          -0.48672193609837   -2.93673200828022    0.95625263109463
O          -1.13523834353746   -2.18086242295976   -0.41134132806750
H          -0.27502538476921   -1.71034677407765   -0.50592854821766
H          -1.76641666955026   -1.49918801263023   -0.15231575550444
O           1.04284402068240    2.96820502479847    0.36985530771948
H           1.47456602579023    2.12464428098051    0.68814114537860
H           1.75519943868470    3.46423152153226   -0.03909719967209
O           0.46031112876032    0.34735024641010   -2.59973398478408
H           0.86445695889320   -0.08551834640457   -1.80075343528638
H           0.02516821988480   -0.36550880650538   -3.07241467154165
N          -0.91305931639423    2.06650788104434   -1.14463774649491
H          -1.52192084341775    1.46825686511356   -0.52662601658048
H          -1.45116490851997    2.78280599148370   -1.61930467920313
H          -0.15169593237797    2.49538176962170   -0.53304344397874
H          -0.42317023354716    1.42361569296104   -1.83209638699960
