    26
        -50.46756494  Gyration_radius:  2.42405019127 Dipole_moment: 6.541
 S          -0.51335319164730   -1.14623078688902   -1.05387931527708
O          -0.95396422775315   -1.39070719079801    0.30848594063252
O           0.80770438875513   -1.63185028197254   -1.33573034881434
O          -0.62549203015942    0.31064241350419   -1.34440970515630
O          -1.49112350644397   -1.86903437414967   -2.03161338415822
H          -2.31108763162904   -1.34511128041814   -1.99038725608902
H           0.85939462630861    0.91905930828848   -0.91960175013129
O           1.68140894480354    1.35264272761577   -0.58781743439681
H           2.06383435783348    1.79852690965918   -1.34497779781797
O          -3.17880299072950    0.17292867574664   -2.00471919159803
H          -2.27931656609571    0.49958648840085   -1.80840360977584
H          -3.42404553608922    0.52535870902663   -2.86246285024241
O          -1.70854025039337    1.15126009561465    0.94068632019943
H          -2.02950019962743    0.28600576317313    1.22169851419650
H          -1.35638892514184    0.96886317040318    0.04352895896439
O           2.86784803614969   -1.10968113248278    0.24998608956816
H           2.84043199573492   -0.17152953941366    0.02326581645101
H           2.26001816932550   -1.51550604448795   -0.39868283384841
O           0.98620815596277   -1.25118070193206    2.10712488237764
H           1.79435397142774   -1.36991301220508    1.55050869551250
H           0.23629981165909   -1.47349944900966    1.50965726593602
N           0.70915829403022    1.29191656977878    1.97095780417613
H           0.87178819357621    0.21410124813891    2.15419612814344
H          -0.31278641764358    1.37202000449720    1.69320321186909
H           0.94309715332221    1.86839404176436    2.77039849808247
H           1.26285535447333    1.54293766817261    1.13898734119137
