    26
        -50.46296038  Gyration_radius:  2.60405315033 Dipole_moment: 4.814
 S          -0.63798693065356    1.60743557008525   -0.08374926459812
O           0.75651496066677    1.58321286620295    0.27612907888711
O          -1.42949972997193    0.70040809070059    0.74803695757334
O          -0.85791405832994    1.31561074021782   -1.50683882790287
O          -1.16905780271302    3.05807118023872    0.17143847219626
H          -2.05159374001422    3.05255634691396   -0.24565621248601
H           0.03811776146764    0.01440405140526   -1.65164354516764
O           0.55301185475713   -0.82240244378365   -1.79612372572120
H           0.71242727116002   -0.86788453874917   -2.74118402740663
O          -0.20130651762400   -2.75149329709778   -0.06038612078418
H          -1.12479013411029   -2.94602550397053   -0.22949651707800
H           0.05697205171390   -2.08605429447955   -0.73238242479488
O          -3.16410249856437    2.55930236199238   -1.51930314517090
H          -2.42500396392910    1.93804272145035   -1.68628317869224
H          -3.18676938916253    3.15922365210673   -2.26820547263071
O           2.31472339594577    0.12608823071186    1.86008834957944
H           1.91275480466166    0.86105180581723    1.35479779226669
H           2.73282501812551   -0.43284473169852    1.17504163119963
O           2.73089771815059   -1.54139800508891   -0.23219016444289
H           2.38180772417199   -2.42268462241534   -0.08103434844987
H           2.09047994027045   -1.09912796088087   -0.81427614749970
N          -0.00934187541287   -1.02366570708922    2.04159124609289
H           0.98420180463894   -0.60030544226281    2.08811937700631
H          -0.62838314248696   -0.27464765282134    1.58535071315658
H          -0.01947846171186   -1.83268339489571    1.38928604966411
H          -0.35950606102611   -1.27419003263141    2.95887345516816
