    26
        -50.46401178  Gyration_radius:  2.51144574413 Dipole_moment: 4.022
 S          -0.65670058667752   -1.15309506386849    1.36067274316842
O          -2.02320361732651   -1.40322222213530    1.01056825765628
O          -0.36909593864491    0.30616720406320    1.32727552342887
O           0.29230958211569   -1.85618115376977    0.49109679345877
O          -0.38565551950472   -1.61273272735749    2.82054562654560
H           0.54342340878789   -1.33893228837978    3.00818467450109
H          -0.37131363241133   -1.65691451929885   -0.93571135338281
O          -0.82932334370990   -1.40577318166013   -1.78387546307820
H          -1.40231274495924   -2.14741588260886   -1.98671304477986
O          -0.49670162828289    2.66661200099244   -2.07442434650017
H           0.19228338304038    1.97668622716252   -2.25698006657062
H          -0.04427547754321    3.38045195334437   -1.62254110740553
O           2.04937024841613    0.09839915459228    0.37296336178708
H           1.19874782773381    0.44225521629692    0.72368565360835
H           1.83262039117906   -0.83917225593656    0.23076978336931
O           2.03481689907182   -0.54781315290765    3.07198765235702
H           2.30306364103780   -0.33164105691548    2.15847863398786
H           1.86379981145453    0.29032321646210    3.50771297673512
O           1.18133107667097    0.63308308681188   -2.19936824741052
H           0.63824360533738   -0.15763229212757   -2.30417380108636
H           1.65530620283937    0.52477718897279   -1.35268766037840
N          -1.87000572557318    0.84686136585365   -0.72258238984015
H          -1.34047241000912    0.74470799333348    0.19589401395932
H          -1.49175930209935    1.67516639252175   -1.25612215320372
H          -1.63818218190076   -0.03309046807452   -1.24508645859478
H          -2.86631397901841    0.89812527468814   -0.53956960237923
