    26
        -50.46765642  Gyration_radius:  2.55055534598 Dipole_moment: 1.861
 S          -0.56644848666453   -1.97128123072288   -0.63275256724814
O          -1.28577605913070   -0.96314569418881    0.14956478115018
O           0.84611691832040   -1.98866053497946   -0.27592001409680
O          -0.81542409388648   -1.89138837699102   -2.04370359268373
O          -1.16524023221049   -3.36238336303667   -0.14481581350104
H          -1.10877574632798   -3.90357826959832   -0.92600461920812
H          -1.51618773020841    0.12234914848906   -2.59547232838256
O          -1.46465694913109    0.74670797051048   -1.86408724961069
H          -1.56303557783923    0.17953619606791   -1.07340804504627
O          -1.12280185912534    3.19439309970451   -0.62337501949648
H          -1.36562556788279    2.37406700183611   -1.08376174195292
H          -0.96636271024662    3.84888511245784   -1.30607580931159
O           1.02983119065211    2.21839349384877    0.69998646021267
H           1.31984230673809    1.64971935167644   -0.05133787723302
H           0.27131063307899    2.72123656976398    0.33948180000131
O           1.93479112524125   -1.61976754242864    2.08391496155810
H           1.55131985073417   -1.90256635437637    1.22080458464806
H           2.84187691496767   -1.37265435805547    1.89286879305525
O           1.26323747005561    0.47789384387333   -1.29970804943293
H           0.39722768986028    0.63702095231884   -1.70854008451202
H           1.24927985419694   -0.44933192794871   -1.01110516253615
N           0.03675355248938    0.25865049495290    2.08055718342986
H          -0.57363581276307   -0.22624955687396    1.37163004669965
H           0.44482046760841    1.14048820791804    1.59967466596211
H          -0.49185095065306    0.48969691290149    2.91379525582162
H           0.81941380215321   -0.40803115713022    2.28778943172566
