    26
        -50.46134965  Gyration_radius:  2.5715753627 Dipole_moment: 2.856
 S           0.37383658503566    1.34653679776054    0.59371151189617
O           1.68036338431903    1.03553215403401    0.01656441611217
O           0.29353491181286    0.93580173634042    1.98707704379186
O          -0.68991288947587    0.72058742874364   -0.20490554467998
O           0.16282376934393    2.87692576637585    0.54906998700886
H          -0.15824503675751    3.06450842937481   -0.38308083034633
H          -1.72380414533796   -0.41426878338656    0.36674987597186
O          -2.26904236831983   -1.14461359149518    0.74814689551812
H          -3.09192217928192   -0.74111558919249    1.02623217048892
O           1.05454480353185   -1.45221624055252   -0.54238388464518
H           1.52931467557893   -0.60740837343119   -0.38331694741684
H           0.25132661398112   -1.16339910801469   -0.98986645423261
O           1.86381056257046    2.01138925467540   -2.43459932211161
H           2.62207259090467    2.59620412263183   -2.47553686272293
H           1.88164177111536    1.60458011742750   -1.54031895249417
O          -0.97268773554677   -3.63573291195242    0.26527116323758
H          -1.65542332993499   -2.96255420476940    0.15852260007877
H          -0.34949550808369   -3.51599647861773   -0.45471101248763
O          -0.62486287991603    2.83861328897290   -1.89193111712990
H           0.23396856830063    2.64705457243442   -2.32531547648111
H          -0.97760513816288    1.97362246023263   -1.63677664867478
N           0.12257396441489   -1.62688797819659    1.94461028944690
H          -0.88608113383809   -1.79197406256234    1.78335880370975
H           0.24261190541608   -0.57564491216001    2.12822412177111
H           0.49143510124549   -2.22012507687396    2.67988409743082
H           0.59522313707188   -1.79941882779760    1.01532006695726
