    26
        -50.46493930  Gyration_radius:  2.58850447123 Dipole_moment: 0.606
 S          -1.96776231346084   -0.31676161106656    0.66984768794735
O          -2.12918470141834    1.13015091343749    0.58172174211816
O          -0.73901513047870   -0.69086129138757    1.34895176076709
O          -2.13758662744702   -0.95984000100247   -0.61755595312481
O          -3.13860847148519   -0.84798273744542    1.59953164355041
H          -3.93042239436889   -0.72335797493182    1.08391019529294
H          -0.93599789380124   -2.21705328517080   -0.69318256401681
O           1.84931516582174   -1.48640407845809   -1.70239815655822
H           2.03334215098168   -2.01387713565756   -2.47964270173530
O          -0.12720950614799   -2.66382277673381   -0.37831986192278
H          -0.05877583241344   -2.33766201549638    0.52888337659901
H           1.12317154481913   -1.95199710706592   -1.21817419845309
O          -0.39135828843706    2.92801194521316    1.56531780572150
H          -0.69416931463675    3.78463900121471    1.26031507352505
H          -1.10123932283422    2.29399830156972    1.33293736721865
O           3.44453578054522   -0.19707864111240    0.00645634442096
H           3.71200282451242   -0.85412016321178    0.65114497057676
H           2.99539308251115   -0.68640594100077   -0.71708027420121
O          -0.67822986735499    1.18185111455200   -1.66529734468276
H          -0.91875548971470    0.32829462640149   -2.03774352874716
H          -1.34011733528787    1.33138470342504   -0.96454347326693
N           1.05892105494257    1.00189915450024    0.37217910596005
H           0.64618721021669    1.09420494551629   -0.58457259785377
H           0.47800675331341    0.27620012163005    0.85607653312759
H           2.05880089899375    0.70754647075241    0.32456924450055
H           0.88875600296216    1.88904346156185    0.87666781274488
