    26
        -50.46967145  Gyration_radius:  2.42656477064 Dipole_moment: 1.717
 S          -0.46658099635316   -1.28513011690880   -1.50456767286385
O          -0.55340189447876   -2.34315838058437   -0.51185779595678
O           0.87048649235197   -0.78245860699195   -1.70173446618777
O          -1.42904583952284   -0.21769382446266   -1.22548334498689
O          -0.91640431639072   -1.93513198763495   -2.87650552505982
H          -1.64771412445459   -2.48259283752789   -2.61020684007916
H          -1.13745939356019    1.41064368703210   -1.10069325442482
O          -0.91430696210437    2.35798566557041   -0.95482196059445
H          -1.40097848185033    2.85624158482107   -1.61233745964055
O          -0.76778887269196    2.19012307115493    1.87649707087628
H          -1.46862266440328    1.54736047029326    2.01423701823928
H          -0.82949530926970    2.44617277353794    0.94602768110259
O          -1.43449207078008   -0.55256406430543    1.38516453026318
H          -1.37298917761218   -1.51255043259281    1.40804535572819
H          -1.55363696448875   -0.35457928030947    0.43137729856359
O           1.87093162703133   -2.14994011579866    0.50399354266548
H           2.31410286270883   -1.85172938316172   -0.29704055101055
H           0.96709034049959   -2.37803996475451    0.19318583231953
O           1.65180574094269    1.49920813097018   -0.56716857037047
H           0.88086422695633    2.07013745636579   -0.72042345981890
H           1.49025403807671    0.70833221968817   -1.12116609602588
N           1.18127201605497    0.15350439597546    1.63758997172027
H           0.13932764780164    0.05368604858445    1.68334531184506
H           1.58019800516247   -0.78450215526099    1.36496071960866
H           1.40906211519087    0.83082690648649    0.84034826355954
H           1.53752193518418    0.50584870981487    2.51923438052831
