    26
        -50.46725644  Gyration_radius:  2.60260553819 Dipole_moment: 3.996
 S          -0.58921411909230   -1.00371267581287    1.14863746999275
O           0.06081895397780   -0.18032743205036    2.16023811067714
O           0.31864776482668   -1.35526500993006    0.07534128606940
O          -1.79145219926386   -0.32887276476096    0.63842399819249
O          -1.05158408915371   -2.33316384444211    1.81587050433295
H          -1.81726826744940   -2.06978679042934    2.36584951745636
H          -1.34314640978521    1.01811569337314   -0.11272526072084
O          -0.99615742806615    1.82652076860434   -0.57277000063948
H          -1.71118987416308    2.46488574176924   -0.56510381672486
O          -3.25720623658526   -1.14002614674349    2.65723391767797
H          -4.06101382587668   -1.55731622349750    2.33887183154667
H          -2.89210107506156   -0.62914356093268    1.90624211496029
O           2.74380904844373   -0.27131581807744   -0.46736281737301
H           2.02858646669590   -0.90469714722303   -0.27239997815506
H           2.68897418801433   -0.10402674542653   -1.43822374775548
O          -0.30063684041651   -0.31058722798319   -2.33100673661078
H          -0.65785974382307    0.53123428141346   -2.02220394677844
H          -0.15258762072845   -0.83263614956332   -1.51894028739529
O           2.21147935249541    0.15055653249871   -3.04328642926762
H           2.48512902239079   -0.52334280172432   -3.66678959390180
H           1.24445364312007    0.00608626540388   -2.89174007684532
N           1.38153013408811    1.54841474206487    0.76111764949876
H           0.90008867790255    0.89966113563270    1.46147086331923
H           0.63260758185288    1.88733396112948    0.13415379890679
H           1.86280153417595    2.31191116881158    1.22291907133014
H           2.06249135149156    0.89950002800322    0.21618253816082
