    26
        -50.47771716  Gyration_radius:  2.36996569168 Dipole_moment: 4.706
 S          -0.79546174886108   -0.89251837081582    0.85941510424214
O          -1.61472057965790   -1.59748131579134   -0.10056011784126
O          -1.08216145382558    0.54376993605686    0.87780326239500
O           0.63213834414848   -1.12120642078243    0.59861371785845
O          -1.09814016106980   -1.45718799050846    2.27340291215378
H          -0.62722700288133   -0.82715505070560    2.86656012340166
H           0.72772457094500   -1.76167287003000   -0.93067494017816
O           0.52503779891877   -1.97833970576251   -1.86906014041266
H          -0.34152857114131   -2.39550316171893   -1.81250581609763
O          -2.43770807849200    0.42543849810614   -1.55493797320400
H          -2.46072437675126    1.07393220960412   -0.84321319766439
H          -2.29336074471476   -0.42494210244476   -1.07924235107798
O           0.83646469798657    1.86023866577964   -0.37345850089688
H           0.08107981882012    1.48398656273273    0.13094527135516
H           1.61313974285209    1.62776660507846    0.15533018595630
O           0.17196122563060    0.62219297712086    3.25031930999935
H           1.08267051333306    0.68524185035718    2.91749240095673
H          -0.37533130378118    1.02164935705365    2.55731322222458
O           2.38924764351284    0.53207918697671    1.55523371855722
H           1.77608928133877   -0.15202354155623    1.18832373170856
H           3.23045562678278    0.09431940039298    1.69162621984259
N           0.02603927764438    0.53835061298087   -2.50466728351473
H           0.22481997223473    0.89097044916397   -3.43412383607400
H          -1.01276483280403    0.57089824911350   -2.27846680298846
H           0.31802069847302   -0.47662960402229   -2.38961744793776
H           0.50423962130166    1.11382562358584   -1.75185075277141
