    26
        -50.46558921  Gyration_radius:  2.41138662331 Dipole_moment: 6.493
 S          -0.33703276178990   -1.19814230807028   -1.13132286916105
O           0.61998922852217   -2.28401161433043   -0.93760533621321
O           0.28578711607895   -0.05750111507546   -1.80430997775983
O          -0.92030536076606   -0.78682809724254    0.14344863354452
O          -1.48032854973774   -1.73224652429814   -2.02353162083753
H          -2.20391887931833   -1.05176507067960   -1.91925568866026
H          -0.32853492980915   -0.72715286625182    1.54772337669476
O           0.12300780713841   -0.62783069894764    2.44338507464843
H          -0.48450053364797   -1.01308847321938    3.07639385965334
O          -3.16839523987491    0.22083206055553   -1.76168787608203
H          -2.57654171705159    0.88663923088476   -1.32939777862838
H          -3.36919340640533    0.57732292890855   -2.63027288536981
O           0.26157940423788    1.98230551315625    1.52657999609479
H           0.16106505911071    1.10887945127386    1.94723384616283
H           0.22400718498925    2.64242946929031    2.21999205010292
O           2.14026171095118    1.04095273858397   -0.29178418892673
H           1.56771253829864    1.57852385244730    0.28123052186606
H           1.54371425236501    0.71686583520526   -1.00627264673212
O          -1.28551452069771    1.90014190706746   -0.95899981271580
H          -0.99297522903851    1.97019868488751   -0.04198114722533
H          -0.65778797569188    1.27105342902228   -1.36959412041120
N           2.20796779185023   -1.30120146872107    0.82853888476617
H           1.62695710637499   -1.20303558874510    1.67689499714148
H           3.08452829684791   -1.77642483520586    1.01111793977445
H           1.61278365210736   -1.82166151031085    0.09159545410305
H           2.34566798498176   -0.31525492013758    0.41188129417515
