    26
        -50.47356178  Gyration_radius:  2.43492808291 Dipole_moment: 2.291
 S          -0.03571464096544   -2.18038693120407    0.00032589791099
O          -1.18136160464470   -1.29309259590417    0.18327807975915
O           1.13390151451482   -1.71070857737071    0.70481194717197
O           0.19663678311242   -2.47536047998598   -1.39937962117084
O          -0.43573647603519   -3.56153701836814    0.67050926832726
H          -0.94705903638973   -3.95955019435881   -0.02575799909529
H           0.84890830965438   -1.06890754069916   -1.78191430822380
O           1.17134320378184   -0.17219981320619   -2.04968222098205
H           1.90855790975992   -0.32729802926444   -2.64327968207474
O          -1.56805046992376    0.35523428355092   -1.85993663837093
H          -0.70478958982465    0.26087180157843   -2.28737724871722
H          -1.57520485632081   -0.35094738339231   -1.17812986808458
O          -1.32446754361571    0.63248064617305    2.01283080297951
H          -1.39414541317535   -0.16468233462947    1.44514488554781
H          -0.40534767054099    0.62408875439242    2.32829197992542
O           1.41049881753602    0.40229008001222    2.14902229947884
H           1.30291135703307   -0.43170287388883    1.61886482054311
H           2.09911120472731    0.21810953686658    2.78912290768831
O           1.53968268810169    1.82412448589608   -0.18798403092562
H           1.64972148152752    1.38552137702861    0.67611033133511
H           1.52123756718175    1.10519107016087   -0.84713874114896
N          -1.05905347394403    2.21616916420998   -0.06557623547797
H          -1.47898404351796    3.13687047152830   -0.10055970242927
H          -1.28391272097285    1.69969576540414    0.84056958200352
H          -1.39021413713408    1.58925253330748   -0.85709808069017
H           0.00153085007313    2.24647380216174   -0.13506843527809
