    26
        -50.47136212  Gyration_radius:  2.44326551915 Dipole_moment: 2.090
 S          -1.27475539842384   -0.90120074123394   -1.36948578322289
O          -1.84182447802450    0.43083337343195   -1.15523278456617
O          -1.23937715426411   -1.69399185926522   -0.17253069891322
O           0.01174389752565   -0.81171099188222   -2.05016251899874
O          -2.25412509746703   -1.62345702530982   -2.38162417436246
H          -2.24204178661848   -1.01404226515782   -3.11113201577272
H           1.29559469685659   -1.04817516712949   -1.11142526902063
O           2.10685791314210   -1.14773045955589   -0.54721593438355
H           2.73853410560303   -1.63268916152436   -1.08011193341065
O           0.29909242755289    1.92106471976244   -1.59860601742901
H           0.70448384380062    1.34148587290332   -2.25051808280928
H          -0.55769777146540    1.48651735290406   -1.40960826586618
O          -2.12306726045335    1.24051306929765    1.31563495578377
H          -2.29950362196613    2.17024408778009    1.15718121259018
H          -2.10145883822005    0.82399400793189    0.42173080334182
O           0.65671247423932   -1.97539647028538    1.63770093345304
H           1.37360793363173   -1.84731477492251    0.99283282674052
H          -0.13980299306320   -2.06534606310052    1.07476817830950
O           1.92721426211108    1.41177447974696    0.45564295427159
H           1.35839586748638    1.76927306634225   -0.26507600099535
H           2.22138650154053    0.54551959199078    0.12490461252299
N           0.27249420942906    0.53583580917095    2.29173696830306
H           0.39432143094918   -0.51960140838596    2.15733415698609
H          -0.69836050515401    0.80194379456133    1.99352509531774
H           0.44218987526937    0.80398784424767    3.25424121872837
H           0.96938544598333    0.99766930768113    1.62549556340156
