    26
        -50.47181314  Gyration_radius:  2.44723928667 Dipole_moment: 2.057
 S          -0.84973282492455    0.69594166862056    0.66407163997477
O          -1.41337886135552    1.27713924119991   -0.54601447951760
O           0.36889798145206    1.38025177107388    1.08477104316448
O          -0.61374145431695   -0.73328257362115    0.50541626981258
O          -1.86784356194572    0.88875863103371    1.82912267382331
H          -2.72294663506060    0.63211285604301    1.42560209388657
H           0.91914130067312   -1.51672412407863    0.51565972269817
O           1.88830067391284   -1.66101600932528    0.50178970177416
H           2.16312529236645   -1.35826790134644    1.38627137593159
O           0.20870730901103    0.56370440170454   -2.56239769811891
H          -0.45951738394346    0.96908434187776   -1.97452833126973
H          -0.05022169892447   -0.38137849110571   -2.59305852488099
O          -3.80519561729586    0.43631719509236    0.11370665515853
H          -4.49051436453700    1.09263853601176   -0.03174807519627
H          -3.03207013998699    0.71605068951860   -0.41655367002721
O           1.86199995420065   -0.12517152501640    2.73751167907528
H           1.31195329542947    0.50088431670037    2.22587832651257
H           1.36463130259017   -0.32512945695195    3.53157778129976
O          -0.49120109596731   -1.93394556384826   -1.88760013777406
H          -0.71418246937000   -1.55830402222194   -1.01340807393366
H           0.15188450223230   -2.62567061399301   -1.71879449463161
N           2.09269433647211    0.62460193569644   -0.77077863397866
H           1.44518040728538    0.60452878911810   -1.63136447754314
H           2.98327101400561    1.07085925616821   -0.95951891883906
H           1.54821855302720    1.12965166700193   -0.03137806313143
H           2.20254019498756   -0.36363501534726   -0.38423540426318
