    26
        -50.46493902  Gyration_radius:  2.58961130206 Dipole_moment: 0.603
 S          -1.03184638951818   -1.52242622556057    1.01996910111662
O          -1.03292283913475   -0.10268143077320    1.32846646297290
O           0.27453444192098   -2.13244703067768    1.24022274861784
O          -1.55853275477372   -1.83070744787243   -0.29431695362449
O          -2.02230111578812   -2.17976517113351    2.07090006274479
H          -2.11751987037109   -3.08249318184788    1.78080596513717
H          -2.31901307040080   -0.37224692711884   -0.86567632500387
O          -0.59664100117325    1.68905329155061   -2.31817732024797
H          -0.95553421339599    1.81586860915702   -3.19638297586534
O           0.98962637008501    3.20663717369393   -0.79947575692376
H           0.40503414864291    3.82752877664265   -0.36174027929416
H           0.44899920931314    2.75176875511394   -1.48184239955763
O          -2.49460559378690    0.58706399139719   -0.82485048458020
H          -1.32389930941491    1.29266543945419   -1.77737076155367
H          -2.25795250834185    0.79520807424351    0.08879340542262
O           2.44345698484517   -0.81905858866780    2.12897055018251
H           1.63371711162233   -1.33951451627621    1.94618679273787
H           3.17282397989203   -1.43780255063168    2.06807997223122
O           1.04564532348782   -1.43242349583229   -1.22428112370517
H           0.89022597893503   -1.89259219381087   -0.37839049066007
H           0.20316300147051   -1.49527525681413   -1.68417522229278
N           1.25898101537976    0.76305050800388    0.30398799596734
H           1.30291229245729    0.09732317279907   -0.50169703233965
H           0.33388853461797    0.58348429100678    0.76247330192583
H           1.97915850725321    0.47726844523566    0.98959713479061
H           1.32860178613370    1.75251346867041   -0.02007636830350
