    26
        -50.46135688  Gyration_radius:  2.49063895496 Dipole_moment: 5.251
 S          -0.81747240861636   -1.37051423267723   -0.88007279532022
O          -1.61861129211241   -0.35074498702734   -0.20131300072008
O          -0.38405042907993   -2.40750575148832    0.02056810533864
O           0.31505667228273   -0.72931534936490   -1.56983032961331
O          -1.71411777705007   -2.01998922397968   -1.97769106110498
H          -1.87733610327272   -1.27390868458914   -2.58584571422229
H           1.54676545917326   -0.44654712122067   -0.61431870497697
O           2.31608022672701   -0.22579078781883   -0.02012281586203
H           3.09898914177589   -0.34757401363845   -0.55994980306304
O          -1.52706380188833    2.41428969200099    0.32652351150055
H          -0.59946166932455    2.56668725427583    0.12702716926157
H          -1.75782335309661    1.57193553888773   -0.08704313169126
O          -1.33824657968631    0.19858254740280   -3.37689383752562
H          -0.97679989857161    0.11042484517128   -4.26153868207483
H          -0.59216422496722    0.08012567198538   -2.75463773121463
O           1.32772883594838    2.03385514668860    1.07671945864958
H           2.02620590025404    2.51427593855446    1.52280441012031
H           1.74644011945935    1.27139860618523    0.62580046475554
O           1.14586060606950   -1.67695367494920    2.04101227546825
H           0.59298928216558   -2.16782287361196    1.39348705762760
H           1.83074548032459   -1.26660068327563    1.49013577018867
N          -0.55638844036677    0.31361561160040    2.08712974039583
H          -0.01286516645962    1.16442617836063    1.84654131242998
H          -1.09386772326664    0.04200941833435    1.20663490810828
H           0.11878713224201   -0.49150124812101    2.27461574963574
H          -1.19937999866877    0.49314215231703    2.85025765390137
