    26
        -50.46823468  Gyration_radius:  2.41593762229 Dipole_moment: 7.556
 S          -1.00033453101624   -1.47604377504018    0.48585555292513
O          -2.35245326811846   -1.13395945464303    0.12642326507982
O          -0.48231174769592   -0.56395945225659    1.52470954839273
O          -0.10372070746685   -1.45640011195751   -0.67662882166309
O          -0.96257067660265   -2.90173949519188    1.08332382603363
H           0.00826806585909   -3.08705386298609    1.12476166207738
H          -0.05766158450493   -0.26339066716886   -1.66773587919132
O           0.00399980550866    0.52966137998632   -2.27633651111983
H           0.26179435587882    0.17670333963685   -3.12951891809677
O          -2.39125883582118    1.23265370017730   -1.04631486748272
H          -1.73999247770183    1.07506169065528   -1.74755947628400
H          -2.57135818795842    0.34290583217510   -0.66208060320459
O           1.52668664906479    1.94471504198230   -0.58430612411473
H           2.08150497484821    2.57492708618936   -1.04583027831726
H           1.04992767605751    1.42441526321898   -1.27027532431436
O           2.17390136610304   -0.25644805166857    1.37796153842811
H           1.22132697278539   -0.36835756642080    1.55550591465793
H           2.22599849737239    0.42335646902932    0.69826536001146
O           1.62917250912713   -2.90468971674748    0.72670091295845
H           2.08596979652499   -2.17334950104807    1.17558815450429
H           1.28811377212427   -2.50294985786279   -0.08817999824861
N          -0.77821474325300    1.91226442307503    0.88042657663103
H          -0.68392239557475    0.91527114899589    1.26834332147673
H          -1.51489185738779    1.81343234048668    0.10436432912120
H          -1.05344769460870    2.56657456321924    1.60377936627347
H           0.13547426639835    2.15639923417426    0.45875749347817
