    26
        -50.47138582  Gyration_radius:  2.40930750058 Dipole_moment: 3.021
 S          -0.17800485272873   -1.07194763729015   -1.26206825101829
O          -1.38437812611098   -1.81742752346886   -0.97089131490693
O           0.87689463717216   -1.32683490930225   -0.28111874089323
O          -0.44859541464690    0.35934872593809   -1.37368625283142
O           0.35740895388897   -1.55483492065030   -2.64922562871725
H           1.24752820958302   -1.16475325197970   -2.70169810506772
H          -1.42361106378473    1.16958624734938   -0.36310315574051
O          -2.00265939753915    1.60164808140545    0.31503962128942
H          -2.48316546990135    2.28860784249098   -0.14911451040390
O           0.43407210157025    1.81513106316862    1.80252069394971
H          -0.44652572034989    1.97342481122805    1.43645591096507
H           1.04062624168454    1.90675169325404    1.04273923730577
O           1.67183614780137    1.82510501836941   -0.62612613186766
H           2.42734739613610    1.35781492505069   -0.99292407591667
H           0.89060050823658    1.36310261024583   -0.98370468677660
O           2.76114561271880   -0.59484926992732   -1.88817223901142
H           2.21043574369611   -0.85759095060031   -1.11487339586457
H           3.51281681107618   -1.19061441295813   -1.90599739596640
O           0.27585326605866   -0.77510270757511    2.26190915444647
H           0.66489317616707   -1.08922653517316    1.42155962593621
H           0.43434709827515    0.20529849524378    2.25446088714227
N          -2.12480959313865   -0.89314588953528    1.36405322360299
H          -2.36441414894318    0.08890854305025    1.14642756447264
H          -1.93967036494128   -1.37455463868838    0.43921122118289
H          -1.15518207255469   -0.88684066365888    1.88542027801676
H          -2.85478967945472   -1.35700474602582    1.89290647671178
