    26
        -50.46877065  Gyration_radius:  2.51408327577 Dipole_moment: 1.693
 S          -0.58518840219579   -1.75146730294729   -0.56028217257692
O          -0.06934906184817   -2.04140154106252    0.77359319683347
O           0.36498769908242   -0.98535537123517   -1.34741360429984
O          -1.91623788029045   -1.18448912787576   -0.52495691287740
O          -0.71333650667139   -3.14479816513347   -1.30428289022831
H          -1.47932953585954   -3.54381054078142   -0.90323971462679
H          -1.90795062515379    0.06135894729495   -1.72230731809103
O          -1.52676214519052    0.67099658243026   -2.38169909599916
H          -0.67267096520502    0.26720829224439   -2.57486824243877
O          -0.87904923695324    2.90496751806878   -1.07318618289353
H          -1.12204654941315    2.10406456518525   -1.59647440835832
H          -1.65643691009027    3.46427251025323   -1.06744857454129
O           0.42896671622510    2.14369436665544    1.13276522204994
H          -0.03254102143995    2.54164663402281    0.36267253665870
H          -0.21212580894974    1.50621949819517    1.51728774337795
O          -1.22640768578985    0.13580761852446    1.78631886633923
H          -1.97306942397079    0.11413362741439    1.17860436981902
H          -0.76601540177365   -0.70201239189566    1.60012104094649
O           2.26398864859839   -1.51178530023547    1.90887609261612
H           2.03516450961846   -1.32442426110628    2.82162969509683
H           1.44731255830660   -1.87135232290922    1.49841592415226
N           2.06807680173160    0.43965313480766    0.08552408414143
H           1.45027870795876   -0.10607295309872   -0.56840372172077
H           2.87030004778267    0.81761532082052   -0.40547738917750
H           1.45557272511978    1.22496451707770    0.52644211807319
H           2.35386874637663   -0.22963383471615    0.83778933772234
