    26
        -50.46906644  Gyration_radius:  2.46861249012 Dipole_moment: 4.276
 S          -1.03682547975682   -0.73167683015401    1.76166311862177
O          -1.23686571060680    0.67865142783588    1.52324223431873
O           0.29859921161414   -1.15956101587508    1.33462580155674
O          -2.08132781997815   -1.58890121913533    1.25172203633416
O          -1.05903549084121   -0.92395649324618    3.33955728151343
H          -1.39242298000331   -1.81216868922954    3.41003280517310
H          -2.05529934353959   -1.03223892564949   -0.27173587894830
O          -1.97606646322590   -0.72626912881284   -1.20432007764357
H          -2.86631063241975   -0.71938434480662   -1.56098881366192
O           0.42172894027333   -2.15595782933326   -1.21031140093509
H          -0.45315418450591   -1.86141606680569   -1.49992037915874
H           0.42623391419283   -1.99133547713827   -0.25210514251173
O          -0.30534381159490    1.36413112073627   -1.97065854787668
H          -0.94679681706729    0.67909413188882   -1.71813552446639
H          -0.19173721838459    1.92373937272208   -1.18966927562587
O           1.90651125897768   -0.11243358802016   -2.03393042196152
H           1.15325734431274    0.48455641272070   -2.25458644532037
H           1.48224501341143   -0.99283313186527   -1.89124983379094
O           0.21821985912746    2.57344718035979    0.54276852577721
H          -0.37545238718744    1.88203219514541    0.93460635389915
H          -0.08617959594682    3.41317584781820    0.88883501289730
N           2.05918908716117    0.57490016479062    0.43415942614812
H           2.96612550468786    0.55847764435932    0.88535647337903
H           2.11836385931552    0.29869847145789   -0.63346545231239
H           1.40141593363679   -0.12442566236580    0.87717559634208
H           1.61092800835242    1.50165443259549    0.50733249825300
