    26
        -50.46774627  Gyration_radius:  2.51179314884 Dipole_moment: 3.609
 S           0.03928382886140    1.86539040001751    0.43305187298089
O           1.38715966158935    1.49572165057156    0.02943270982792
O          -0.39922154923910    1.08005203938358    1.57727606101243
O          -0.91128697665210    1.82561168249814   -0.65858507364042
O           0.09940943882316    3.36996629162799    0.91234285530074
H           0.69435619811129    3.33251897516021    1.65463007097801
H          -2.14836426253981    0.64985199466450   -0.66832742771098
O          -2.76975722256733   -0.10721806392375   -0.72210490079719
H          -3.61769949439829    0.22695294545425   -0.42798060510871
O           1.06409847642895   -0.59932276030441   -1.61174207245907
H           0.46725295027073   -0.31108161338595   -2.33402540393722
H           1.34115013794404    0.22709034762199   -1.17314886885401
O           0.93708311432730   -2.64546209401339    2.11045410150759
H           1.61247426670503   -1.98409339592306    1.84106027721571
H           0.80465862591473   -2.51727721943156    3.05069545009558
O          -0.90789191504915    0.52064762204651   -3.05408673579630
H          -0.88107308259255    1.21638243228259   -2.37596763712142
H          -1.72283230383524    0.03847029911452   -2.88601814051138
O           2.52624890546630   -0.67645282569513    1.16643573437412
H           2.11648159371567    0.16766897601873    0.89537266854643
H           2.95248123600100   -1.01165116159851    0.37362963635938
N          -0.55296536614110   -1.26102941709801    0.37354201292722
H           0.10299033205734   -1.13678726885349   -0.45611822462108
H          -1.51458873375818   -1.36367582614478    0.03429417858282
H          -0.20844242799770   -2.03246227351910    0.98076696117451
H          -0.51100543251623   -0.36981171677429    0.93512051988015
