    26
        -50.46806506  Gyration_radius:  2.49015250041 Dipole_moment: 2.795
 S           0.55808036419501   -1.57651077556510   -0.96900925720900
O           0.07391879005054   -1.45132495647637    0.39797981467348
O           1.60605980945668   -0.60456954299797   -1.23355782115368
O          -0.51801351213715   -1.56418292370867   -1.93891239283885
O           1.22296837924969   -3.01120762270325   -1.09834916223447
H           0.62064918759379   -3.46342025317574   -1.68032984330595
H          -0.38826675860489   -0.02304569934187   -2.66788586728188
O          -0.11147575555624    0.88799066295643   -2.88803942437393
H           0.84834642284125    0.84976820118160   -2.86267292398899
O          -2.22534349585146   -0.19869554275262   -0.07335490293740
H          -1.40305056397201   -0.70886490812048    0.07189498864690
H          -2.56407125311616   -0.52000247607544   -0.91238467383931
O          -0.97016408985295    2.11359475184514   -0.66118556669680
H          -1.58539622765273    1.41585882893693   -0.35396400281252
H          -0.74885410459484    1.85392238932064   -1.58265206916868
O          -1.13146833090121   -0.72855728900590    2.71687905826766
H          -1.89698737624585   -0.31802715406845    2.30380926984107
H          -0.68612135441967   -1.20593733772746    1.99768508880522
O           1.04104882222492    0.75164977819386    3.00557009421466
H           0.16744283397054    0.28737697604896    3.01593744318165
H           1.67262267794983    0.11333594177137    3.34129283886103
N           1.30146606095970    1.42779003026952    0.42413718286108
H           1.21566925747396    1.15812949765228    1.43861836599909
H           1.51563204364804    0.58030273956405   -0.16415634485392
H           0.35839802997438    1.80656344970033    0.06283245969076
H           2.02691013330629    2.12806324426824    0.30981765764964
