    26
        -50.46451560  Gyration_radius:  2.69775806625 Dipole_moment: 1.957
 S          -1.95397512003227   -1.39579905441787   -0.23418031309045
O          -1.69960768775679   -1.29593025702941    1.19685716244057
O          -0.89194335058611   -2.02220296312991   -0.98163002173015
O          -2.31607549098836   -0.09029859051480   -0.79117530106609
O          -3.23561254094549   -2.31784305362830   -0.37320495891985
H          -3.72240394166672   -2.09176030052447    0.41295595935319
H          -1.30777522971258    0.52585916043644   -1.95926305394495
O          -0.63781672181186    0.92962446754528   -2.55977992435099
H          -0.83333572017268    0.58596157017477   -3.43252552140290
O          -1.51972941203134    2.33922528141653    0.03963909977773
H          -2.02847141124977    1.53552042198536   -0.18605824804601
H          -1.17618518525451    2.65486997610565   -0.80093547161698
O           2.37289869963031    0.50707117575194    2.70417631284059
H           2.46753236406739   -0.15161396362191    3.39369368121183
H           2.87969446588605    0.17269173435924    1.93479660134377
O           3.45463603320453   -0.47004035100647    0.41839875933708
H           4.15107598220420   -0.02953606827306   -0.07072745735794
H           2.71625573721526   -0.58981875449330   -0.20377346235796
O           1.18606995121980   -0.44806956522745   -1.15496429823204
H           0.77065438772604    0.16153044250606   -1.79879505083152
H           0.55323393558429   -1.20271423513550   -1.12284691910057
N           0.16177841664277    0.55367016330794    1.13664812849503
H           0.66188316801534    0.23802416075627    0.27073127492282
H          -0.55202844551969   -0.19060946117481    1.34720465101319
H           0.85934594662000    0.66322678805332    1.89937615885950
H          -0.36009882028550    1.42896128574944    0.91538220245112
