    26
        -50.46757307  Gyration_radius:  2.39718878733 Dipole_moment: 3.765
 S           1.51687969872617    1.32074630664305   -0.20727064231786
O           0.93633778597023    0.76077436287000   -1.42205959574142
O           2.71635364634500    0.64904756026450    0.22895145235664
O           0.50555694470335    1.42110492514638    0.83691879783653
O           1.96191000388291    2.79806864619590   -0.56104179906331
H           2.86353667821463    2.74873170771817   -0.26588632107613
H           0.05607824391631    0.13107902438269    1.71727511557190
O          -0.37765573063785   -0.65130055562534    2.14095725937879
H          -1.01396968169426   -0.27529386993202    2.75462552847293
O           0.69820276991308   -1.90895909265049   -1.36666315632385
H           0.90848218629832   -0.98016404048947   -1.58784640221734
H           1.27053114376700   -2.10075067016972   -0.58557942034238
O          -1.65059068109154    0.90333148229239   -1.75354424031712
H          -1.76677377310520    0.82469029903658   -2.70177626231516
H          -0.67389420363697    0.96949056206457   -1.61228906891940
O          -2.24910468563794    1.29145929017444    0.97375095138962
H          -2.56847224049072    1.60455571489878    0.12400534529239
H          -1.30648071634517    1.52154868271743    0.97983134831158
O           1.98432963809425   -1.82345305779561    0.93946080496287
H           1.33163319179591   -1.65286594935540    1.62701284057493
H           2.40051517893822   -0.96075617071164    0.74191043215031
N          -1.53908309632362   -1.33510882491210   -0.19622562937748
H          -2.30243889613471   -2.00161116646286   -0.18061633576055
H          -1.22311732750493   -1.09359187285178    0.77793827132167
H          -0.66532663934143   -1.70839540318264   -0.72271980291823
H          -1.81343943862441   -0.45237790026119   -0.67911947092981
