    26
        -50.46390662  Gyration_radius:  2.62449041318 Dipole_moment: 3.764
 S          -1.97105492974818    0.85399998466125    0.02345356387838
O          -0.76194800672539    1.06267682915630   -0.77164064148871
O          -2.05606715394653    1.69996999237380    1.18707537005886
O          -2.15918795092235   -0.55618318812199    0.31848773051426
O          -3.16106835967545    1.29258062775537   -0.93453735142492
H          -3.82479535336586    1.53929135072910   -0.29972660659226
H          -1.03719795622702   -1.33665981156527    1.10530103020459
O          -0.26911127305729   -1.75756123254744    1.58143096290648
H          -0.57004699974417   -2.62737269903830    1.84725082816658
O          -0.57769765029360   -0.25947343326215   -3.05190804835378
H          -0.71529942313766    0.38813560912520   -3.74502999912165
H          -0.75222166194892    0.21369039994178   -2.20834754208314
O           0.07474614438894    0.88917295209160    2.59290942965174
H          -0.06495758732321   -0.06366060525735    2.51785662884899
H          -0.69503626486058    1.30501054613286    2.15825764001677
O           2.55284467912653    1.25974512662424    1.69845416254546
H           3.15027108064977    1.17111324921720    2.44162035093038
H           1.64293948446187    1.29333368495959    2.07927856993832
O           1.79665437748082   -1.37810723965141   -2.54734294116783
H           0.95414098970529   -0.95898678949824   -2.84190318444671
H           1.70558530035460   -2.31241110061703   -2.73953851647815
N           1.37497219125178   -0.35642287627461   -0.08447176221743
H           1.75249571756632   -0.77349312497264   -0.96115254451959
H           0.96389666724815   -1.07736815602435    0.53149745508253
H           2.06394527209408    0.20660254274982    0.45389091382984
H           0.58319865664340    0.28237737131997   -0.35116550868050
