    26
        -50.47110243  Gyration_radius:  2.51893147495 Dipole_moment: 2.618
 S          -1.06480958143372    0.62617269521967    1.61908099117837
O          -2.25674881161808   -0.15193343090437    1.42233636923502
O          -0.63426143451281    1.33834014355104    0.41348366906556
O           0.04596236920129   -0.13725746797755    2.17586517950961
O          -1.41212408467450    1.75105217520875    2.67218818731530
H          -0.63083752974863    2.29432134190662    2.65678290079303
H           0.26990412646791   -1.60355266056537    1.18934083470396
O           0.44872938170776   -2.10908601949625    0.37532866054636
H          -0.40966316997136   -2.19474764605721   -0.07390677089072
O           1.06234275932656    0.53256425411913   -3.16977634893710
H           1.15652977549601    1.32586021945795   -3.69793848368043
H           0.10881273794342    0.48969528659424   -2.90901721079701
O          -1.37494873096136    0.52841242019262   -2.10374691790949
H          -1.24576619212083    0.99655819493966   -1.26202286789625
H          -1.67912331335833   -0.35519083093368   -1.84497552709035
O           2.57130122803061    0.66254570131135    1.87201401264992
H           1.64930961641875    0.38612582694195    2.06392294250181
H           3.12125113853008    0.18878316059024    2.49747346443280
O          -2.07321392064693   -1.73169644612403   -0.64182376722752
H          -2.83251664114956   -2.31545157668008   -0.68197800220431
H          -2.22313349468985   -1.13767778031185    0.13404614491050
N           1.51267504834690    0.12632430530797   -0.56257462278801
H           2.32344549303005    0.38160719960440    0.01334785425072
H           1.61999986594413    0.28123868683931   -1.58654175937546
H           1.24412463200747   -0.87340622141062   -0.35286919301470
H           0.70275872245497    0.70039845886004   -0.21803973915698
