    26
        -50.47096522  Gyration_radius:  2.40571488497 Dipole_moment: 5.279
 S           0.35420512243174   -1.31102676684519    0.34189439715840
O           0.11010762264752   -1.16621814416697   -1.09610270972411
O          -0.80967294883358   -1.85238661873935    1.02063540626063
O           0.75679487468687   -0.02767581411431    0.92346094197986
O           1.52685737920995   -2.29938290997949    0.53556674952439
H           2.31400958843967   -1.80628381708025    0.17874810389866
H           0.54647776464531    1.30139307469469    0.15330420437171
O           0.29638244380036    2.17676676499669   -0.27000045844109
H           0.76839403102691    2.84721482037256    0.22699000778176
O           3.45173067240157   -0.94656137607840   -0.57954196093831
H           3.91366439916298   -1.51617984956583   -1.19869537134731
H           2.95346774588152   -0.29380880593717   -1.13290654921076
O          -1.41895472561140    0.15859572703124    2.54895457090034
H          -0.50805399955047    0.45606777871857    2.65360302043575
H          -1.30176841171573   -0.71732123193234    2.10253915490907
O           1.85366726868527    0.53412068457366   -2.08654610464961
H           1.49949054836828    1.35999076822567   -1.73793247945115
H           1.16110457803288   -0.13164238083688   -1.88524250872082
O          -2.46442661448554   -0.88995022020438   -0.96711372274994
H          -2.56666095054489   -1.54367979700152   -0.26503075067948
H          -1.51917288424000   -1.00770297831325   -1.22900987897446
N          -2.20434267398988    1.36533032856251    0.34840575834073
H          -1.97985857576310    0.96857456435650    1.31777116864299
H          -2.39884600829484    0.50899251107508   -0.26776606600280
H          -2.99629915514434    1.99838732320483    0.36610204060723
H          -1.33829709127923    1.83438636498916   -0.00208697391760
