    26
        -50.47023493  Gyration_radius:  2.48654022606 Dipole_moment: 4.158
 S          -1.71547207977246   -0.75056417434093   -0.20914133817672
O          -1.76685370220177   -0.72847892409015    1.25936626155083
O          -1.16130837873520   -1.97001960983102   -0.73286110445969
O          -0.97233583595242    0.42965742193361   -0.67840105198459
O          -3.17381118664987   -0.60871685345900   -0.73978770025937
H          -3.48736060321889    0.20537268828291   -0.29662233053800
H           0.29089952634985    0.01159777394831   -1.62699696283092
O           1.10511238918805   -0.24906710795507   -2.12530410307447
H           0.79450638331063   -0.59796684811849   -2.96205508611324
O           2.78521226683817    1.62831770468636   -1.06127732137255
H           3.65473286770142    1.23191980476271   -0.99288510384988
H           2.24277024426729    1.02301700050960   -1.59722955489343
O          -3.18150103871452    1.49564820171757    0.86440554862470
H          -2.69824995208056    0.79970388124975    1.34328306381176
H          -2.51139471029054    2.06916297325439    0.48260177723009
O           0.82142631741360    1.76236457585121    0.81617016058711
H           1.58365401825537    1.90146545575501    0.22190026956220
H           0.10144375003678    1.45123011496741    0.23204634078610
O           1.42303045120177   -2.13868235140733   -0.17091609758181
H           0.48460143366665   -2.35575151025883   -0.35403008551243
H           1.64313984589838   -1.53213267547710   -0.89934159198431
N           0.77207240872745   -0.62291934814751    1.87893656815544
H           1.18911570518150   -1.27328174164867    1.14589425750988
H          -0.27619422917470   -0.74261998717016    1.79838482042213
H           1.10324431705999   -0.82943258892051    2.81452229630514
H           0.94951980172188    0.39017611385589    1.58933806807091
