    26
        -50.47530412  Gyration_radius:  2.42318875653 Dipole_moment: 2.967
 S          -0.22397199274304   -1.56542604271447   -0.69979132280389
O          -1.20676860757500   -1.16048546698389    0.32444284243510
O           0.80780150073456   -2.40502925680749   -0.16255829615635
O           0.30835378127861   -0.37977866144145   -1.36745356048632
O          -1.02213512350449   -2.37534060868348   -1.77391831713912
H          -1.75014577890094   -1.77549106369630   -2.00464194881140
H          -0.63717709905038    1.02878346982255   -1.33049535331573
O          -1.20183844983725    1.80415468020454   -1.14062594531922
H          -2.09785234311485    1.50161008509189   -1.30983545393998
O          -2.97706966689346   -0.52275778526926   -1.45414005940843
H          -3.84218392222157   -0.89398342614620   -1.27025516311717
H          -2.43226579074790   -0.65994629100891   -0.64632407540062
O           0.47299702600270    2.44810491139064    0.86884851139118
H           1.28505474879334    2.17013125409864    0.41112657875418
H          -0.22399197870643    2.41311502733689    0.18266183011338
O           2.37668018419256   -1.01920545901005    1.49322674470623
H           1.93554823923733   -1.69095078893232    0.93211480661399
H           2.70436616508124   -0.34804202647460    0.87211276730171
O           2.38181681634285    0.93556263088070   -0.45991203039334
H           2.94936283158518    1.16156917473781   -1.19823553167655
H           1.62981862090062    0.42195408826387   -0.84306267980358
N           0.14045416694727    0.18705707182016    2.14798465145274
H           0.23093522162501    1.17558586788465    1.74165708558137
H          -0.20078860087546    0.19664425081497    3.10234186268125
H          -0.49897411616090   -0.35803610280622    1.51623118026513
H           1.09197415760031   -0.28979951244185    2.06850088650548
