    26
        -50.46069972  Gyration_radius:  2.35377592853 Dipole_moment: 5.380
 S          -0.22609516718209    0.49926547470081    1.09202785461387
O           0.24784810793358   -0.38618985092863    2.15011262151175
O          -1.25741212444431   -0.18934430567807    0.26552354409455
O          -0.80138835898330    1.75727227793248    1.62341654314152
O           0.90906624732420    0.82844648069107    0.18471680918605
O          -0.60154238807702   -2.65112642613515    1.32387560167295
H          -1.36652536004856   -2.32361912459488    0.83613252334905
H          -0.28318697495497   -1.83192304903964    1.80341258344316
O           2.60965727515468   -0.95614892562695    0.90028712750926
H           2.32277251464990   -1.04363830760722    1.81775795413227
H           2.07714941432321   -0.17473538824164    0.58241270351060
O           0.28920795587710    2.35537072868199   -1.79056068162750
H           0.89570223936661    3.09713066116229   -1.79219899536816
H           0.58334843737867    1.77295471508509   -1.03510091198929
O           0.01953839095060   -1.00981594685150   -1.80449146297408
H           0.55181442868079   -0.25147860124456   -2.06172854946087
H          -0.53480998036234   -0.68510298060992   -1.03660164250728
O           1.26507843594691   -2.66556110814699   -0.35493959448186
H           0.49298333962304   -2.81349885623638    0.34920030912310
H           0.81822725445689   -2.06276315990884   -1.07240757296519
H           1.94159713720010   -2.02909856438386    0.14645692369843
N          -2.04040164143360    2.19651155093783   -0.46656633328748
H          -2.88251753996613    2.75472566739432   -0.53307627701557
H          -1.30882869618166    2.46015287033175   -1.15683915589515
H          -1.51352909562290    2.16931767727922    0.57284540298916
H          -2.20775385160956    1.18289646103782   -0.54366730440506
