    26
        -50.47104019  Gyration_radius:  2.46616040298 Dipole_moment: 1.828
 S          -1.53821951815689   -1.20897648173133    0.22169448791921
O          -1.44365769418780    0.05814003876446    0.90879448425424
O          -0.35943801521895   -2.04907699990994    0.42751022756289
O          -1.87184467449641   -1.09158213614349   -1.18621524458273
O          -2.74360608409542   -1.98481470675715    0.89861069642557
H          -2.82896609918227   -2.73892703524606    0.32565019073212
H          -0.72206914172632   -0.45299686592340   -2.05702127301728
O           0.02882579322671   -0.06259929452419   -2.58349050524487
H          -0.06732066241194   -0.40268402332221   -3.47480878774713
O          -0.32689651734316    2.54879552280557   -1.90292090722105
H          -0.11524130958731    1.64540972601773   -2.20688206136554
H          -1.27479587314840    2.65016888537717   -2.00746656762849
O           0.05747369392748    2.28681182490747    0.75215007243961
H          -0.62598310975452    1.60006708588151    0.86816372895895
H           0.00896565915325    2.53037016105771   -0.19629839073499
O           0.29476689492943   -0.94521115514887    2.72143960322537
H          -0.48186369061883   -0.37314553736321    2.66956882565276
H           0.14572919987229   -1.56808096854742    1.97962777841838
O           1.80566589475832   -1.05411927683936   -0.76007706997967
H           1.08920937257427   -1.58458623103843   -0.35263415098116
H           1.38131029559691   -0.63008400591583   -1.52590665695656
N           1.95302139811817    0.57869109052866    1.30496307701619
H           2.85108257727700    0.89484734534397    1.65095144217396
H           2.04859422586662   -0.02330733882314    0.43527518821127
H           1.44039008852298   -0.01500852006124    2.01464533261220
H           1.29486730610948    1.39189890661296    1.07467646986124
