    26
        -50.46908712  Gyration_radius:  2.36582392289 Dipole_moment: 4.964
 S           1.31696012601113    0.07977115099048   -0.71937293241033
O           2.68956957668735   -0.07593185884428   -0.26001775225837
O           1.29358269746606   -0.13130761182710   -2.23603342702134
O           0.46339188610603   -0.93707336852831   -0.08729866175081
O           0.79388697901622    1.41494417919970   -0.41687263832550
O          -1.62196693388169   -2.23500073733458   -1.16591191406068
H          -2.28488742391330   -2.07888630512783   -0.48869206290865
H          -0.77425729700449   -1.94016279299329   -0.78209377427309
O           0.47079543424411    1.33812454128663    2.21765149564445
H          -0.42227420009122    0.92526831383210    2.14801985478457
H           0.66851253284788    1.60479823930412    1.29393467168903
O          -1.62302237584760   -0.02881968087504    1.30593505343096
H          -0.89993524133189   -0.45151968712616    0.79856083976087
H          -2.02407201730729    0.59233135104650    0.68265894800717
O          -1.73969286640368    1.70223048530273   -0.90790671276913
H          -1.93068064729728    2.61339839718653   -1.13500316556210
H          -0.76598858149967    1.66088637098921   -0.72408537975873
O          -1.18391361345294   -0.15708010120844   -2.82260515371857
H          -1.55641849000585    0.53692347954689   -2.24573755009886
H           0.32235710670447   -0.13741803915059   -2.55198150488205
H          -1.46366697652427   -1.00902190851143   -2.42615927947282
N           2.07406368605592   -0.68098407038746    2.14180079193564
H           1.50501545161916   -1.51970614938360    2.05139079781473
H           1.41601858874101    0.17432299235486    2.33048436245950
H           2.79783252435195   -0.78921253037210    2.84522231136834
H           2.47879008531271   -0.47087464884544    1.15411278216227
