    26
        -50.47083179  Gyration_radius:  2.45233788919 Dipole_moment: 3.519
 S          -1.82174251188687   -0.97772971274671   -0.30661330618594
O          -2.29549395589741    0.22388187390384   -0.93910808892567
O          -1.72895732770195   -0.88273409019224    1.14848926484830
O          -0.55876097858156   -1.45827388123279   -0.86362411151115
O          -2.89336982020874   -2.10235034544218   -0.60534378913669
H          -2.53759403983171   -2.87781748119174   -0.18247263836857
H          -0.04573566577200   -0.07834643205346   -1.60730659764528
O           0.23377007622966    0.80922782728604   -1.92595068228793
H          -0.57551208574182    1.20088824512773   -2.26548289486031
O          -1.91990780452724    1.96658860081971    1.03315001614389
H          -2.17085111244671    1.45832302458671    0.23631365555036
H          -2.14604121086340    1.38358947806464    1.76211032981053
O           0.69694498637841    1.98725476773552    0.47793624217331
H          -0.21893722923780    2.22650343226712    0.73949223829209
H           0.60557291853163    1.67580959798373   -0.44671603446149
O           2.89396832911177    0.35392651737616   -1.29783206699503
H           3.00954056574821    1.12024101721429   -0.73116881221490
H           2.08652110152976    0.52012619742778   -1.80572374032675
O           1.98583465471988   -1.84719884685879    0.00700876293164
H           2.48933415213583   -1.19152102561672   -0.51844375603457
H           1.14106199557841   -1.95571310344832   -0.46267445104336
N           0.76734743511203   -0.31273275167701    1.74270585945717
H           1.36348217429355   -0.98465436793996    1.16187946877239
H          -0.24068010067949   -0.59682640160322    1.60674361962432
H           1.02437426758757   -0.32462121478054    2.72309064999444
H           0.85583117639231    0.66415906505667    1.31954083236737
