    26
        -50.46485821  Gyration_radius:  2.43767834126 Dipole_moment: 4.822
 S          -0.85525091038654   -0.68387051711708   -0.48049383019780
O          -1.93275177634506   -0.23240276142886    0.38599956486202
O           0.33622546159057   -1.02848271886322    0.30912347913941
O          -0.51368602995330    0.30505316003680   -1.49389734752546
O          -1.35024194083296   -1.97135347530747   -1.17724738981109
H          -0.60029487003918   -2.33406043597199   -1.72133361924939
H           0.38901433701156    1.43061342635910   -0.70678512007832
O           0.96161578050984    1.94303513292970   -0.08691293461534
H           1.81092714370538    1.49413374060607   -0.08685303473541
O           0.77535209457057   -2.86154025372183   -2.40823646173740
H           1.40602451605772   -2.11864760013305   -2.25560713957325
H           1.11625421007663   -3.61431614820040   -1.92070177328712
O          -2.23464479894190    2.43925194847540   -0.21151459724621
H          -2.38406795702579    1.48488066535516   -0.15114186235474
H          -1.79518232386843    2.57214931919594   -1.05357319815098
O           0.75737888060353   -0.60853716241087    2.89977143613836
H           0.58653444729795   -0.89925956501834    1.97686351069227
H           1.65440924552242   -0.87571155743553    3.10433069961751
O           2.06921224709027   -0.66358482260179   -1.62690624395378
H           1.54697430292012   -0.80632255029094   -0.80754302288828
H           1.53264931393908   -0.05347022438848   -2.14587902854248
N          -0.65783902790008    1.43916037672830    1.96485068418541
H           0.00566564138011    1.81698712600286    1.23410454505196
H          -1.29222159341660    0.77555688719131    1.43419061125707
H          -0.12570329975157    0.86461463154119    2.64567188506031
H          -1.20635307381598    2.18612338848417    2.37972020800836
