    26
        -50.47150677  Gyration_radius:  2.41363131468 Dipole_moment: 3.777
 S           0.49558645158620    0.32980164819179   -1.49738744443810
O          -0.66609069472459    0.06804205568042   -2.32811767080773
O           0.90194645483044   -0.86246777148257   -0.74697052860564
O           0.25759130101143    1.44944783413776   -0.58191327108155
O           1.66474796273279    0.71760458495603   -2.43485399239113
H           2.45980982216390    0.76805204266297   -1.84840561443839
H          -1.07889855924558    1.47785136901318    0.26044771257865
O          -1.91333992093978    1.42694429446412    0.80593542792007
H          -2.21272238700297    2.33091861473959    0.91286721973260
O          -0.58600498850941   -0.41560858227605    2.50975958260450
H          -1.12212835031145    0.28806531184014    2.11671366047355
H           0.33966000066076   -0.15194361447583    2.37703813114130
O          -0.89189242326519   -2.29258475416774    0.63260355686271
H          -0.80293433273325   -1.78457592978429    1.47330184982197
H          -0.12876430694176   -2.00351668157395    0.09367757274193
O           3.63604555550240    0.62901651647770   -0.69327425042313
H           3.18007376136337    0.63636191732038    0.17433097477184
H           4.02162479304827   -0.24513618717069   -0.78665432084798
O           1.81373099301299    0.42676214780432    1.31569088856962
H           1.36564057045879    1.21990246064944    0.98522356512445
H           1.53038721871734   -0.25162544350994    0.66102841695747
N          -2.49440265327509   -0.75869252723171   -0.68691741789722
H          -1.95232017703608   -1.51612160116893   -0.12394428386444
H          -1.83141649954835   -0.46100168287935   -1.46951440844009
H          -3.38088342948116   -1.09351799371417   -1.04676956399802
H          -2.60504616211124    0.06802199143017   -0.07389579205939
