    26
        -50.45996657  Gyration_radius:  2.81928788669 Dipole_moment: 3.714
 S          -0.60262972253209   -2.86659185463802    0.11668260302178
O          -1.69541213010848   -2.09145508438651    0.70383214851995
O           0.66801122863947   -2.61207606887120    0.75735276910083
O          -0.56383206808805   -2.71026262255929   -1.32984012650799
O          -0.94985129736397   -4.39001760768608    0.39343714601404
H          -1.77907854600002   -4.49084086812935   -0.06341927924018
H          -0.09921671933523   -1.27714005247340   -1.79118741633964
O           0.07772016040044   -0.32152315984333   -2.02037366664536
H          -0.23308148171670   -0.20676990457919   -2.91953280613051
O          -1.67363686731920    2.86886041418032    0.79166708312949
H          -2.34943083441684    3.30788604519403    0.27391192790570
H          -0.80930930962387    3.14549901105420    0.41070832153834
O           0.69056384259314    3.34660358921979   -0.36045112599258
H           1.31422912154274    3.98687359661740   -0.01664372892195
H           1.21804907545154    2.53130229141763   -0.54318296964464
O           2.09239052616102    1.10657095872211   -0.74097637487595
H           2.14617983645066    0.60265893339581    0.08559182379252
H           1.58348848226493    0.55078079585751   -1.35015314915670
O           1.59825587775557   -0.34669458949208    1.57418691840712
H           1.32396507194660   -1.24740830019340    1.25525663214566
H           1.98991732587132   -0.48307575573446    2.43761089848404
N          -0.80731038753788    0.33667592901750    0.47509094175354
H          -0.53471360697202    0.31836884429652   -0.52570447825989
H          -1.33971387104579    1.20541300050572    0.68848708648757
H          -1.32454259634120   -0.57061305891344    0.65716667128741
H           0.05898887932046    0.30697553801911    1.04048215013009
