    26
        -50.46389170  Gyration_radius:  2.59628599626 Dipole_moment: 4.438
 S           0.72526817538293   -0.63599267656772    0.45147578975664
O           0.96525244101801   -0.44443854178380   -0.97837898602647
O           0.71469157791673   -2.05166091551887    0.79955276176862
O          -0.53781926661528    0.00759628932447    0.83338593781549
O           1.87042356216562    0.03185455285590    1.23668316625301
H           1.55641491266515    0.97184258155155    1.43496467577469
H          -1.83090206697563   -0.71736275503265    1.56366338413940
O          -2.53096826723629   -1.31591672385442    1.92038454361893
H          -2.31447793853211   -1.44590696792223    2.84501918586714
O           0.70239582749193    2.26848792686102    1.55813794046178
H           0.87014623029691    2.82602095717401    0.76202728028877
H          -0.08547757776447    1.74065785112488    1.35767474420028
O           1.29660479519377    3.58802105823237   -0.69119079767537
H           1.70354673546800    2.85341535417282   -1.20549766181733
H           2.00062101325689    4.21882673451359   -0.53150382650869
O           2.40284563783346    1.52468073851883   -1.97960356381489
H           2.25773002843309    1.42778085471292   -2.92248741991163
H           1.94965672281190    0.75887488715155   -1.56313265649300
O          -1.48345452379136   -0.85620557032581   -1.78802162814522
H          -1.92774556488334   -0.12444301730236   -1.35087313159993
H          -0.52270371581919   -0.69303215458680   -1.62654870425227
N          -1.58001419248835   -2.83005603853274   -0.03639481211178
H          -2.18096203401769   -2.46639134427081    0.73968707843950
H          -1.67848755945728   -2.16964661153737   -0.85915067806293
H          -0.57077363581901   -2.67112124593069    0.30677751491597
H          -1.77181128658922   -3.79588522297967   -0.27665013685750
