    26
        -50.47547322  Gyration_radius:  2.37913509319 Dipole_moment: 2.861
 S           0.12957527899904   -1.01318786030334   -1.07226477030686
O           1.43432172772398   -1.56150761399123   -0.78874521020045
O           0.19192269167142    0.43002271923914   -1.34375951011669
O          -0.83300441332744   -1.29921796539295   -0.01769441901832
O          -0.39924405115721   -1.69244825170922   -2.38161172874343
H          -1.25261969416191   -1.25919137135349   -2.53189944873592
H           0.05282721093324   -1.77994522108827    1.32357367293061
O           0.81986572000021   -1.88913479158395    1.92760089949396
H           1.50286635019274   -2.25020948291857    1.35183860222997
O           2.79496007001373    0.60957864008860   -0.18438270806272
H           2.45180504564258   -0.27220745589320   -0.45287873264766
H           2.35533691695834    1.21891707073066   -0.78494302816846
O          -0.54415063350191    1.86158457109037    0.79395165860642
H          -1.45361114622731    1.50167714932761    0.89736700342073
H          -0.24244550103311    1.47304368108621   -0.05129885732432
O          -2.79425888077062    0.44616406153456    0.52158607350864
H          -2.19774114944839   -0.32163630776589    0.44022580217033
H          -3.11531257397610    0.59312628365762   -0.37424630192996
O          -2.20965990625819    0.34541093401986   -2.36035150723588
H          -2.31578571010725    0.88206593583914   -3.14852332256479
H          -1.33580590647694    0.57670805195179   -1.97714022647087
N           1.40144871804645    0.69015357170787    2.07783358679870
H           1.75489269238945    1.08933469536599    2.93990933028512
H           2.10713327600037    0.74587915005583    1.29316003509820
H           1.16011539687247   -0.33703673166452    2.18521919229614
H           0.53656847102286    1.21205654798332    1.71747391468829
