    26
        -50.46069965  Gyration_radius:  2.35423075606 Dipole_moment: 5.372
 S           0.69605189192718    0.00527202043707   -1.00145537449493
O           0.59056330842409   -0.43670786032950   -2.41185402547904
O          -0.37440928397631    1.00596806290818   -0.72999626416796
O           0.44037016251466   -1.15804902418499   -0.10625239219974
O           2.00542970696796    0.56921107200431   -0.69187868644836
O           2.26864045803115   -0.79577659125009    1.65921484206987
H           2.91088527689233   -0.35678299801758    1.08777025077648
H           1.57119961671287   -1.09213436653254    1.01041957713379
O           1.35431624910651    2.61218998669790    0.69936946828926
H           1.74658757098471    1.90339421383219    0.11104376970767
H           0.49129663594141    2.76424865714834    0.29640558936076
O          -1.29097672740343    0.35380629149483    1.57695995831619
H          -0.99625288434215    0.63315780122009    0.66174823492451
H          -1.38951559148403   -0.60116871060602    1.52270541634548
O          -1.84090569771008   -2.29437859246949   -0.46021686478077
H          -0.94031905007686   -1.89791087348020   -0.29273890268053
H          -1.68649590184606   -3.23008808094552   -0.59696316318328
O           0.89478422259364    1.07045465387235    2.62672310435868
H           1.52387533280842    0.26938477919116    2.35011404283023
H           1.12514516713448    1.82337352293057    1.92386101814275
H          -0.05709371804096    0.76688563353820    2.34415222539726
N          -1.87734059829131   -0.39116473601783   -2.35192060776401
H          -2.47360584018310   -0.26909458691833   -3.16108966243078
H          -1.81632436517093    0.44413772577845   -1.75196985989710
H          -2.14092465891934   -1.20237840730495   -1.75710046869258
H          -0.73498126259063   -0.49584959299697   -2.55705121542950
