    26
        -50.47296455  Gyration_radius:  2.41757329513 Dipole_moment: 3.142
 S          -0.13149097792844   -1.35462562392066   -1.23226036151103
O          -0.59240459393154   -0.22890372205158   -2.04153359571781
O          -1.05737024764973   -1.69610162935213   -0.18363524576004
O           1.22719841977498   -1.12637116943966   -0.75435054448659
O          -0.04767905009301   -2.59406390644828   -2.20435743229847
H           0.62597880276982   -2.30587374425933   -2.81006464727359
H           1.53993690862874    0.45083334835078   -0.22236665836067
O           1.53394116929578    1.37508121973875    0.10540198687816
H           1.30647689837595    1.90121369501488   -0.68509470758699
O          -2.41597355959885    0.71517690422321   -0.40084035137378
H          -1.79285362350577    0.41892882740662   -1.10167141538776
H          -2.81926122136613   -0.10354018357976   -0.09727387462397
O           0.39219430474449    2.25524576023014   -2.17168469045074
H          -0.37745531269445    2.81260677114612   -2.29721661207744
H           0.07259003915776    1.33505553936602   -2.25726297209153
O           2.10253956357964   -1.49339896475269    1.75466379332569
H           1.84455985259275   -1.51271149044689    0.81254109821835
H           2.69433669551267   -0.74351859199975    1.84486008955560
O          -0.49216451511609   -1.21239109678520    2.38679208889670
H          -0.80655332095200   -1.57570554992253    1.53517645606843
H           0.46682855249539   -1.41479555585834    2.39021160742854
N          -0.66101042430266    1.24813007662194    1.54524331829016
H           0.26345568059935    1.39892768403623    1.03378916279924
H          -1.41912225324209    1.17206846737313    0.81731845545187
H          -0.60557966102138    0.28651239269131    2.02725087550317
H          -0.85111810611441    1.99222055260569    2.20636415658191
