    26
        -50.46497451  Gyration_radius:  2.61165199826 Dipole_moment: 5.217
 S          -1.11944749164211   -1.38540771823729   -0.93827967147476
O          -1.69968454142651   -0.12260944768006   -0.46996293735990
O          -0.53364954122433   -2.12211118815586    0.15209509560879
O          -0.21956303885540   -1.16693375158337   -2.05931986684623
O          -2.31460203681014   -2.24418229388179   -1.52495997833240
H          -2.27466606365246   -2.02701151128851   -2.45095238658516
H           1.14857312404561   -0.44974279376250   -1.63416943066286
O           1.94098703501044    0.02726419094214   -1.27146193621238
H           2.33521325100374    0.48918753806231   -2.01261953022602
O          -2.04544762277428    2.52086499602812   -0.70481036244259
H          -2.96612815805988    2.66369001639136   -0.47803117445866
H          -1.92955841736650    1.54981103354527   -0.72916124721919
O          -0.26173208130127    3.26972038837761    1.16423826095281
H          -0.95662643373915    3.09140354729901    0.49033432314967
H           0.22929452451200    4.03073062612278    0.85235930258587
O           0.93718106433049   -1.37564122573864    2.54015768898629
H           0.13799641696390   -1.86745911586978    2.32030865438190
H           1.61723262189255   -1.77131567396567    1.95153472312883
O           2.16686185545843   -2.30700530067331    0.34689642750431
H           2.43803797588429   -1.58793548797975   -0.23623662573804
H           1.22694458060320   -2.45831579934798    0.14142720914515
N           0.43929324313720    0.66409415702238    0.92664145391476
H          -0.45549496804526    0.35174072824694    0.48345150377598
H           1.16962505758635    0.59127289131126    0.19697295004336
H           0.32468108605318    1.64998886571175    1.23441010157002
H           0.66467857841617   -0.01409766088738    1.70913745280712
