    26
        -50.46237344  Gyration_radius:  2.52537557498 Dipole_moment: 3.366
 S          -1.91782494565143    0.22993320507467   -0.71292828640832
O          -1.53489330771852    1.17674079677691   -1.75445654858758
O          -1.40758114948147    0.60193461834246    0.59027860131247
O          -1.56907821603943   -1.13192620491896   -1.08297641097064
O          -3.49234328201409    0.28864278010189   -0.61271070625401
H          -3.76198567991104    0.09384405255841   -1.50448453865230
H           0.07925098491761   -1.11424534788700   -1.30725019859749
O           1.06324319676540   -1.12023204491670   -1.26019143547150
H           1.29658869118971   -2.05058512352520   -1.35794527961079
O           0.44121759505554   -1.13117731070839    1.47035468242929
H           0.87669643194722   -1.23669101339590    0.60860659285838
H          -0.34465986730453   -0.58409239522307    1.27873616090911
O           0.56452405546819    2.39179958716272    1.09155135997112
H          -0.28416207351088    1.91152692645517    1.09310813035132
H           1.14732411341599    1.89762256359102    1.71499584731347
O           1.95196528976148    0.72134474683342    2.63723881695381
H           1.80557070489369    0.72897455091070    3.58385375512386
H           1.45892667266127   -0.05911878749021    2.28650057473681
O          -0.19447375239587   -3.46724602866246   -0.26379064193775
H          -0.88536942453315   -2.88049476639731   -0.59918745366702
H          -0.08014996981247   -3.22262880171932    0.65989846582402
N           0.99002836164057    1.59981055883454   -1.33024167410060
H           1.50754232698113    2.19868635669691   -1.96425430652761
H           0.95802722961281    2.00017503670476   -0.31945566526846
H          -0.03402925713643    1.51707388194813   -1.61656473356944
H           1.36564525118599    0.64032818290031   -1.32868509820133
