    26
        -50.47096522  Gyration_radius:  2.40578187719 Dipole_moment: 5.279
 S          -1.26507709608821   -0.16842800089953   -0.57573792412683
O          -0.73641897274084    0.89408350724093    0.28390408269821
O          -1.90239418066467   -1.21013644234790    0.20968661851664
O          -0.20171236870728   -0.71747228835683   -1.42207896578903
O          -2.33540035145098    0.46413785576519   -1.49437010708345
H          -1.87475063295411    1.25359548500551   -1.88768254476378
H           0.28405947140462   -2.08243674550617   -0.64851091121641
O           0.37008201386896   -2.76848733666619    0.05711398039779
H          -0.55013988332973   -2.94244219996560    0.28852808270225
O           1.76088435005535    1.11903607499451    0.74052650220533
H           1.86902679511897    1.95245847801948    1.20205498735916
H           0.78966607307712    1.07334774568748    0.49023717377903
O           1.40356278840059    1.23782923426339   -2.13774787865140
H           1.86681175215603    1.38785368111984   -1.30591781174411
H           0.89459218260481    0.41217094032489   -1.98717255636321
O          -1.25213677354613   -0.43547697214261    2.60299977416073
H          -1.64852960144253   -0.83816368894209    1.78997980586166
H          -1.25237382374009    0.50341002037057    2.38488203992233
O          -0.94418879180152    2.39015232961873   -2.55883824885532
H          -1.06092114571664    2.36747414754763   -3.51121589515243
H          -0.01520830028525    2.09015947101079   -2.39293886040447
N           1.18906061119450   -1.20247123461897    1.99653394300919
H           0.96864169595652   -1.91181118801382    1.22252392200926
H           1.79133015636575   -1.60279208579798    2.70736833315794
H           1.61529754104152   -0.35534018246533    1.55654053324639
H           0.23623650123054   -0.91025059525141    2.38933190513161
