    26
        -50.46114350  Gyration_radius:  2.69238456294 Dipole_moment: 2.314
 S          -1.54457014568944   -2.28592843328834    0.06850707367583
O          -0.82870526282994   -2.90315120601105    1.14470748294213
O          -0.85329249844286   -2.34348921226844   -1.21788368762326
O          -1.91722917277112   -0.89646519058278    0.37761416341010
O          -2.90490664544802   -3.07285842317669   -0.15255594500719
H          -3.09679274507655   -2.93437263126163   -1.07596002797960
H          -1.53124449608166    0.46323922785115   -0.43993398074117
O          -1.28187612198878    1.33032500866293   -0.84340869113231
H          -2.09540111000265    1.70857888202174   -1.17917531646025
O           2.40106043435724    2.63662001237567    0.10158276009392
H           1.60684622689723    2.54722493173413    0.68350183219549
H           2.58901367656937    3.57380248844062    0.04504823305908
O           0.11075277706505    2.24813467602665    1.38556372934927
H           0.19123335050120    1.41139829923657    1.86183453455974
H          -0.46718711111385    2.05206516238565    0.62818295819888
O           0.17261953094819   -0.50342989400836    1.91474116445456
H          -0.69660115859732   -0.57251185875859    1.45569963575776
H           0.21470695652973   -1.31502685022279    2.43023595955591
O           1.29823638665584    1.15439696654190   -1.82252391036790
H           1.79617873671560    1.75905425830240   -1.22689078175305
H           0.35699716588377    1.33867015490993   -1.66355372281282
N           1.32083386026757   -1.08813667223887   -0.49076190718432
H           0.51310224454294   -1.66199863508119   -0.87288955460678
H           1.40203775982182   -0.19354180855981   -1.09066828022680
H           1.06373775085655   -0.82639867838640    0.48812192218090
H           2.18044960052086   -1.62620058458650   -0.50913565352813
