    26
        -50.46882154  Gyration_radius:  2.54831565896 Dipole_moment: 1.731
 S          -1.59564845765879   -1.20321525948890    0.32826328894723
O          -2.57046538469815   -0.77032546574892   -0.64023475200081
O          -1.10640177027470   -0.12464246257048    1.18240577709684
O          -0.48255765951566   -1.94504944689657   -0.25271572013060
O          -2.35475445802349   -2.21234549000306    1.29198954341486
H          -3.21776397236164   -2.27632964502188    0.89563678994872
H           0.31007565282312   -1.22720613628025   -1.46960935266544
O           0.83896299164360   -0.66011047628183   -2.08453481598760
H           1.46573268798123   -1.24196175609643   -2.51709124667028
O          -1.36867767502855    1.13605861137935   -2.11429784549077
H          -0.65578067034433    0.59279605461856   -2.47068911670670
H          -1.93077470013835    0.52052353725963   -1.60615495622725
O          -0.27223670749554    3.22244613573319   -0.86008859645888
H          -0.95119575437112    3.63211290689625   -0.32218736508474
H          -0.73981541007824    2.56625533160783   -1.42897301121765
O           2.82264732508353    0.09257734746484    1.76676725284356
H           3.13338033258597    0.34961431800881    2.63542450934149
H           2.21006423759421   -0.66929947270100    1.90861893426774
O           0.87147075560225   -1.70946140333986    2.07313844257001
H           0.64633434110302   -2.14367716498787    1.23626942433803
H           0.12179932655015   -1.10923925696935    2.20285696212441
N           0.98801601461807    1.05393732139373    0.05205354413133
H           0.15310141543138    0.62886114993942    0.53184056017836
H           0.73605150394528    2.03700482487821   -0.19266348461912
H           1.81165708043507    0.94311335657603    0.67579867287543
H           1.13677895456379    0.51756254063706   -0.82182344881747
