    26
        -50.46811906  Gyration_radius:  2.40697026605 Dipole_moment: 6.277
 S          -1.04527951924087   -1.24794530557396   -0.65283882213013
O          -1.31701320267419   -1.10361160821086    0.75589809084364
O           0.24342511835531   -1.89749279672457   -0.89726385681802
O          -1.15498294998295   -0.01127483031450   -1.40992368499755
O          -2.15762123080507   -2.20912458075880   -1.23560420183705
H          -2.11690749008136   -2.06631270401375   -2.17618833798311
H           0.12235144078728    1.01444811261010   -1.06897870895985
O           0.97954897557249    1.44222911296860   -0.84249954500389
H           1.55407439611520    1.20299785447296   -1.58376580178138
O          -2.58830141109590    1.25354410546912    0.54710397423706
H          -2.33915886515360    0.35486158802768    0.81990578268864
H          -2.38608522295323    1.26472075271920   -0.39538929827099
O          -0.33285942078078    2.28451520687686    1.63181920322857
H          -1.24396384003117    2.09016120340400    1.32577187889005
H           0.19908763191157    2.34927245713374    0.83160347525376
O           2.04884151133229   -0.54575792815620   -2.38264694147017
H           2.19539708444735   -0.95200962305369   -3.23732758191491
H           1.37852645138534   -1.09247239035776   -1.92787925995785
O           0.14493854164847   -0.04015337240756    2.81894794795803
H          -0.03775098571360    0.90434345349997    2.58539330970197
H          -0.58298368537021   -0.53851455030705    2.41669627745750
N           1.72071401029838   -0.50258058084628    0.82614419303237
H           1.59507756721618    0.37407067039750    0.25071568581960
H           1.23924189261523   -1.24792332412959    0.27612335692811
H           2.70164637850124   -0.71972562444944    0.96570538482770
H           1.18003683369704   -0.36026528827643    1.75847747025889
