    26
        -50.46947634  Gyration_radius:  2.50976059348 Dipole_moment: 3.413
 S          -0.72486770095917   -2.02708399723468   -0.23956293544171
O          -2.08446099464696   -1.57524740651603   -0.44065471829138
O          -0.14503255960623   -1.55288209657866    1.00551897076179
O           0.12147147057734   -1.74168239085429   -1.39427389254136
O          -0.78291293125772   -3.60309176955232   -0.10900183126609
H          -1.35107543608165   -3.84833614433286   -0.83173678954548
H           0.03780338773831   -0.18766480512996   -1.83465448999989
O          -0.00342387246300    0.77825676473520   -2.04789501067187
H           0.12162267849905    0.84513815453824   -2.99616461109641
O          -2.27352233208935    1.06092389070516   -0.55156799471595
H          -1.55218878932521    1.20725119206458   -1.18829260957734
H          -2.42033932507798    0.09056203794629   -0.57864800469881
O           2.16765335159269    1.33632866891113   -0.39077718366308
H           2.43445427634684    0.40637684206346   -0.22459493375805
H           1.43267831305383    1.27564829617686   -1.02271861024001
O           1.14463556788336    2.41620550123263    1.73986404938613
H           1.63411061692962    2.00473882112479    0.96953194196343
H           1.08679644481079    3.35164682108552    1.54088121725431
O           2.39033419029341   -1.32694399856736   -0.01366828321946
H           1.92483344716354   -1.48075758138132    0.81582017447540
H           1.73375304362577   -1.57197940390764   -0.68794614242301
N          -0.98520785405441    0.84035936621224    1.71896167504143
H          -0.62669834924667   -0.13521216346920    1.54063408179757
H          -1.54246016618663    0.85670821519897    2.56591796192414
H          -0.16177281462612    1.50149875568233    1.79409742263346
H          -1.57618365289282    1.07923843984783    0.86093053591105
