    26
        -50.47056509  Gyration_radius:  2.52672862012 Dipole_moment: 1.024
 S          -0.08884150439896   -1.15524088960476   -1.46214666736295
O          -0.08541665872967    0.08099937012973   -2.20282298651804
O          -1.02887200853556   -1.12542919358991   -0.34248122866480
O           1.23378583642764   -1.58056447902583   -1.02113162581924
O          -0.60269296660853   -2.27825362399540   -2.45451022466395
H          -0.32830925949445   -3.11074288100671   -2.07890905738730
H           2.11091665370394   -0.06467028301251   -0.93296953693982
O           2.15880662820017    0.90927774746164   -0.88438393514009
H           1.70816037239453    1.19652262610487   -1.68653243326818
O          -2.39123559422911    1.12433282900606   -1.35260983660686
H          -1.57695369533504    0.86213794064248   -1.82476693574733
H          -2.64514320004761    0.33148845579915   -0.87033988389108
O          -1.58402963396357    2.90752556384680    0.45271107576889
H          -1.39941081640935    3.73876526977785    0.01392971075946
H          -2.00972316196420    2.32655392289055   -0.22395901104005
O           1.16795577950522   -0.34955363183498    3.07401063634969
H           0.99798167658074   -1.20332623520303    2.61010958441007
H           2.10205936440808   -0.34027847815714    3.28704633496675
O           0.62913821906725   -2.40606535479664    1.45131740676406
H           1.06544978260146   -2.19708071224172    0.60363635604136
H          -0.30658175318275   -2.26903636274805    1.26276507107305
N           0.17423750029706    0.93583171967975    0.93203469635288
H           1.00223639001678    1.07730838929258    0.30155189186642
H          -0.38534048823445    0.15451944315916    0.52683911225259
H           0.50695208705030    0.64399973878569    1.87822617733747
H          -0.42512955915670    1.79097911868303    0.94338532913836
