    26
        -50.47114347  Gyration_radius:  2.44192533405 Dipole_moment: 3.993
 S          -0.36354786422727   -1.13398393649642    0.07501411829680
O          -0.25206361303497   -0.46312441948649   -1.22449880960827
O          -1.65835068549873   -0.90921516213471    0.68648058244995
O           0.73530075812896   -0.70967458087720    0.94794066510342
O          -0.25558540062375   -2.66126434624838   -0.15702941451861
H           0.66474157901516   -2.92905431454675   -0.41222913871113
H           0.00617792725487    0.15459255146825    2.18773914176719
O          -0.69970758962276    0.63818996817046    2.67422352610858
H          -1.46695423747303    0.06751809048102    2.53778647119222
O           0.85165287601207    1.89227509043182   -0.81041299842980
H           1.75698987072280    1.66201419356904   -0.58398494096415
H           0.41369959897813    1.03616725254628   -1.03610983892786
O          -2.65134858491764    1.03949401004135   -0.70969914093983
H          -2.16520324019918    0.90058039107018   -1.52848121459390
H          -2.45355017477236    0.22658562408083   -0.18381359083775
O           2.46550158511605   -0.65638091173188   -1.01799826668270
H           1.72454522143268   -0.53145482984015   -1.62667114486047
H           2.03496719244078   -0.63534203590504   -0.13669526556456
O           2.15564980223700   -3.28714710632569   -0.98416791462768
H           2.52269690698108   -2.37299338214098   -1.02024186924731
H           2.13756972123135   -3.62017058473546   -1.88363395995584
N          -1.10744547968143    2.49498751886473    0.85619392028163
H          -1.85770631544976    2.05256061452118    0.24416239190545
H          -0.96115036026879    1.84570753165138    1.69344614057852
H          -0.23096976874283    2.45994777686386    0.27552638170213
H          -1.34590971502148    3.43918502666338    1.13715415907826
