    26
        -50.46580825  Gyration_radius:  2.41879800735 Dipole_moment: 3.783
 S           0.67829530232294    1.46989845201855   -1.10632719346427
O           1.91147883236489    1.74639229867488   -0.38003207481988
O          -0.50267641498472    1.60530732981819   -0.27645626025950
O           0.73466259471984    0.19091294615857   -1.78852772526848
O           0.55970052133326    2.58286049141762   -2.22173900819939
H           1.39788694338271    2.50771058018687   -2.66540539759803
H           0.90932010245249   -0.99827659176187   -0.62680831555934
O           0.92882273588678   -1.72163924342037    0.03971209979982
H           0.56953542631886   -2.47253019213093   -0.45305190824221
O          -1.41436107753248   -1.33402486801029    1.50306912330515
H          -0.59458914770514   -1.61754819062180    1.06263571093415
H          -1.99550306277393   -1.05493608256856    0.77670646133564
O          -0.52304554434109    0.98614732537921    2.36327122116918
H          -0.64990221303173    1.45338276589146    1.51777100473825
H          -0.99285271751727    0.12181730216285    2.23232344204835
O          -0.84984939435377   -2.15752521629649   -2.05355447260293
H          -1.60904030410855   -1.70079240438990   -1.66882744077253
H          -0.27296951588001   -1.44460104301251   -2.35326286622254
O          -2.42925948450330   -0.15135517607633   -0.76921156775961
H          -3.22944471128240    0.34842671032315   -0.93596316370869
H          -1.70855942237242    0.50801454207568   -0.66222567845197
N           1.84744268950434    0.21255317156537    1.71647969741258
H           1.71316446187135   -0.72966971816272    1.32317766477702
H           2.00785232734493    0.87242859500878    0.89671045106447
H           0.89907462555851    0.53969068398591    2.15086806259143
H           2.61481645732545    0.23735557178511    2.37866813375421
