    26
        -50.46852949  Gyration_radius:  2.40905199393 Dipole_moment: 3.913
 S           0.59748270965737   -1.76703456005256    0.07577124050030
O          -0.65599522336619   -1.39398505095804    0.74365462685811
O           1.73234657212970   -1.17574008733373    0.76197856441111
O           0.55843699567290   -1.50705375332480   -1.33958968330924
O           0.72244872139287   -3.33194063260852    0.24782059836076
H           0.78985278291498   -3.44126741911808    1.19110432674931
H          -1.37485765259944   -1.37839324014520   -1.98355912768811
O          -2.12269785072998   -1.10240006238372   -1.43774573855516
H          -1.81410220099208   -1.31004480789238   -0.53479128008111
O           0.71658117882482    1.05672775938596   -2.22336121469387
H           0.72567461033978    0.09374332689130   -2.08014609599243
H          -0.19717703492444    1.34128819876839   -2.07925445974324
O          -1.96151984968635    1.51527363306672   -1.32666676817852
H          -2.10757863811180    0.53236085114014   -1.40782937194629
H          -2.69135938177336    1.93620580852657   -1.78195843929979
O           1.04008193360940    0.22240049289361    2.99388923523604
H           1.28608940299261   -0.36300466552821    2.25603681145886
H           1.86754243212964    0.56727333597741    3.33333060030133
O           1.87508197988148    1.44718455753590    0.12546789716702
H           2.10094517935784    0.51981097613670    0.32195084046096
H           1.65194809947896    1.46001066249224   -0.83432639013631
N          -0.57093746827353    1.23910074468000    1.00584387188169
H           0.45175351621994    1.45138333833509    0.72480757505124
H          -1.21463362500184    1.60155183379404    0.28389886902369
H          -0.65232942015255    0.18940819983284    1.02506825430059
H          -0.75307774898345    1.59714054989336    1.93860526786638
