    26
        -50.47460337  Gyration_radius:  2.41954958866 Dipole_moment: 1.180
 S           0.56806953932856    0.58909039440245   -1.81669073484056
O          -0.22795979218602    1.63710564722804   -1.18054107606475
O          -0.12377073008530   -0.67550168689940   -1.87461429711957
O           1.89537302301782    0.49764041637718   -1.22982461398032
O           0.78623147402740    1.05160979817534   -3.31450243016986
H           1.41330071181670    1.75899921391297   -3.20945170250743
H           2.00140959607765   -1.05049844328762   -0.66732106449276
O           1.81021570859417   -1.98209618597703   -0.41496075375013
H           1.25878123972577   -2.29444404755156   -1.14005529256584
O           1.36980580286519    2.09750896558169    0.91125129410671
H           2.10706984027299    1.59070006654544    0.55427310953091
H           0.74024684978043    2.12833525461296    0.16660729500119
O          -0.27641592881288    0.63924402793236    2.41671896476746
H          -1.08614509924538    0.87955528898833    1.93486639581222
H           0.41921850940189    1.21841321999172    2.02831774567973
O          -2.19116601784625    1.12864904248016    0.47435980848371
H          -2.81890164711543    1.84898183672961    0.40238265517114
H          -1.47912095533394    1.32119407059176   -0.18426563244096
O          -2.03787738478927   -1.51921854957652   -0.22486881872103
H          -2.38327618407297   -0.65587108072295    0.05731500705340
H          -1.44502208498337   -1.30633470827276   -0.97457994827517
N          -0.05082367477074   -1.80018571385440    1.47857291022612
H           0.77936659205102   -1.89312477252690    0.83015935009914
H          -0.91964110101103   -1.82568464862808    0.86068587252218
H          -0.05989883684408   -2.54378766367439    2.16726052777674
H          -0.04906944986443   -0.84027974256382    1.94890542868672
