    26
        -50.46203182  Gyration_radius:  2.57083353198 Dipole_moment: 3.197
 S          -1.88112445920560   -0.97005871829985   -1.30559555995957
O          -1.77829885457027    0.46479194741745   -1.48786418478587
O          -2.22950297168985   -1.34662138552082    0.05823337670007
O          -0.69320328999721   -1.66793010728428   -1.77229225444062
O          -3.08817777653844   -1.44800052178712   -2.21337547275149
H          -3.26477746830479   -2.32666990559808   -1.89195004691529
H           0.55029509422609   -1.75612946863164   -0.74378335649918
O           1.21685802272909   -1.76562551006562   -0.01044825909191
H           1.18919058159594   -2.65224926788787    0.35173701018154
O           0.84376812601883    0.84022646149518   -1.84274867784678
H          -0.12440510714971    0.70721868090751   -1.80752016474448
H           1.17240027359090    0.08718583994217   -2.33808121738316
O          -0.77894406289735    2.36465468037220    0.12020349091616
H          -1.36903807862653    1.90041168015996   -0.50142010831948
H          -0.01228855282419    2.62584914662269   -0.39838265103009
O           1.48330584743553    0.87386123047381    3.04879787766668
H           1.93243193187238    1.51699927578769    3.59688811807539
H           1.88785626042100    0.94036093738855    2.16252361795561
O           2.37679827874044    0.77139079999593    0.43743563543285
H           2.58664005035356   -0.16447075828992    0.35724994960248
H           1.86881100766586    0.97093601846214   -0.37129798408652
N          -0.38652115445243    0.00432843067828    1.33065759511709
H          -1.25297342166101   -0.51974373584460    1.05124322181516
H          -0.44723244345665    0.98180045659526    0.93633824070977
H          -0.21140065304920    0.07821019834441    2.33554723947768
H           0.40953282973014   -0.51072639548452    0.89790454420054
