    26
        -50.47003581  Gyration_radius:  2.39726292367 Dipole_moment: 7.086
 S          -0.85853080411583   -1.04167218628163   -0.65654043398282
O          -0.93628309078729   -0.62342007810698   -2.04749347062673
O          -1.28620538216209    0.04672317232990    0.22859003055564
O           0.50152291900448   -1.45013037969778   -0.29155204562555
O          -1.80069121767189   -2.24129300983377   -0.46282658117449
H          -1.47204072716945   -2.66985041688372    0.38347490349826
H           1.70986186478370   -0.51349640976626   -0.75012126730810
O           2.39459191656037    0.15516374605989   -1.02439325992629
H           3.11247533706408   -0.34862472146088   -1.41044958645208
O           0.97837128079187    1.13625297471572    1.33499798510152
H           1.77367113551442    0.89216420460789    0.85207198782501
H           0.27041102959533    0.57274605735200    0.97652101104492
O          -0.74290810411381    2.70213820373481   -0.08705200215338
H          -1.32898217038358    1.93560837977295    0.03543349337936
H          -0.06375194516745    2.57351957904070    0.59951769100020
O          -1.17148741765656   -0.62327495861309    2.82875053074529
H          -0.44652472831819   -0.05411533190878    3.10176075537604
H          -1.41911741546872   -0.32140667981593    1.93461485069786
O          -0.56858526010527   -2.97146772665404    1.65966145541724
H           0.19968860258781   -2.62467796040517    1.18201486314736
H          -0.82357660003717   -2.27224370197855    2.29882270754467
N           0.40864301317997    1.57455741445323   -2.16270021617509
H           1.33485949235397    1.22359142656820   -1.83958091856235
H          -0.02993319606770    2.17922731505119   -1.39687892115890
H           0.47306083343886    2.06542585814024   -3.04780352380136
H          -0.20853933561627    0.69855520953155   -2.23884003839980
