    26
        -50.46977747  Gyration_radius:  2.43870928698 Dipole_moment: 5.761
 S           1.80420828998534    0.23210168209036    0.43847344815406
O           0.89491360579423    1.33185025278469    0.75158786869976
O           2.52644289610521    0.41324745100598   -0.78926601111401
O           1.10793015468081   -1.04690411031105    0.54065152779428
O           2.88770061417911    0.20780082488956    1.59396758915589
H           3.57507481116970    0.72659445105131    1.19196971679153
H           0.16451632528007   -1.44407949902693   -0.74890357897533
O          -0.43819611927794   -1.63902709980314   -1.50227976353362
H          -0.26489990157633   -2.54389850761544   -1.76548508924087
O           0.78913108547974    0.50097229646144   -2.87589073738276
H           0.30405884855687   -0.30933025377480   -2.66453336272828
H           1.54607937658803    0.51470206044151   -2.26461276354439
O          -2.37897984162901    0.18849372983924   -0.74579167762540
H          -1.88600938188117   -0.55782763941799   -1.12188197742165
H          -1.90898462151356    0.99512367242731   -1.09050420862201
O          -0.71233350933242    2.12372413683035   -1.36343655547331
H          -0.09966883528017    2.07139604578008   -0.61397811941981
H          -0.22011814683835    1.71351637958514   -2.10716588101396
O          -0.35606345675853   -1.75669926234611    2.61167933774432
H           0.32055433430238   -1.55792749894229    1.92610258139422
H          -0.58533253316043   -2.68104341687816    2.50418038854228
N          -1.43468617458312    0.50735946163351    1.64514189006859
H          -1.94490426759291    0.32616748865773    0.70323898296535
H          -0.49361973244529    0.90765430488311    1.37674287512364
H          -1.94959938125681    1.16111624743128    2.22434955457264
H          -1.24721445899721   -0.38508320767615    2.14564394508670
