    26
        -50.47771714  Gyration_radius:  2.36996516263 Dipole_moment: 4.704
 S          -0.15112201078903   -1.45987526864550   -0.11638781024597
O           0.73503435438027   -1.94631070497671    0.91701003407715
O           0.57221007786822   -0.74112928281701   -1.16786351287969
O          -1.20045084758979   -0.60373086886822    0.45301942299074
O          -0.85882892736826   -2.67675966127643   -0.77078333665277
H          -1.31003788844511   -2.27531696784030   -1.54913999358678
H          -0.70256674586238   -0.21800207492420    1.98956988319225
O          -0.13157138517224   -0.03000092021537    2.76889690461173
H           0.36160219496147   -0.85034334330041    2.87873215691755
O          -2.47503191706261    1.05469951508325   -1.08323068642060
H          -2.05115350775185    0.42455650492144   -0.44932107008417
H          -3.35389444950535    1.22802840760464   -0.74347440749148
O          -1.61428069879213   -1.05736573566187   -2.69372400828611
H          -2.12187589026977   -0.30028545254557   -2.35698249044023
H          -0.68542025167804   -0.81018498610057   -2.56966820039699
O           0.21011638088428    1.86086603421059   -0.88958407866878
H           0.39680089936666    0.91997637594613   -1.10548567061064
H          -0.75074630417763    1.93766376366668   -0.97774031250017
O           2.85315239714806   -0.48133909422713    0.41493168912729
H           2.18955069148122   -1.15563760579684    0.68923047502722
H           2.73064150097717   -0.42784600971760   -0.53887921113742
N           1.48176816430430    1.55279484886672    1.39813600038567
H           0.92236586667332    1.84694799258670    0.54535427467998
H           0.83468439650756    1.03785088136206    2.06498310281672
H           2.17979279817404    0.82917989749796    1.05119666417042
H           1.93926112172308    2.34156376517676    1.84120419141232
