    26
        -50.46737677  Gyration_radius:  2.46894427685 Dipole_moment: 5.852
 S          -0.84760694018272   -0.58351965961542   -1.76762068127361
O          -0.60381741544550    0.84074638476093   -1.72408121953406
O          -1.88479210545835   -1.02013990884620   -0.84250115589313
O           0.36749596022840   -1.37010393954210   -1.61063475009085
O          -1.40710238305241   -0.89402711848001   -3.21388015250964
H          -1.79119948675267   -1.75485268467424   -3.08989240874565
H           0.87017909324640   -1.80677328063698   -0.15240558547657
O           1.15448166549380   -2.05501247766759    0.76659210812394
H           1.67745673889277   -2.85280154706911    0.67757258593609
O          -1.21075895049052    2.72072229992800    0.06215702325414
H          -1.09618303999589    2.02884218097938   -0.61941610240271
H          -0.70275086974294    3.47418559478816   -0.24456010196981
O          -0.27819294891894    1.43547679710618    2.20677590643857
H          -0.66154495697576    2.01213263054404    1.50825570932048
H           0.65979774509374    1.27445915228431    1.93611544368889
O           2.03371626786618    0.60619688719743    1.22237104982993
H           1.90916236010520   -0.35244577467935    1.20397946638666
H           2.13757814147083    0.86696056586093    0.28345394056231
O           2.04657743087950    0.89953816878004   -1.46769179387299
H           1.09262280198837    1.02833895514113   -1.62408668826689
H           2.21071091228038    0.00166431152714   -1.76879166352518
N          -1.15256144941412   -0.91472509090073    1.66963602417355
H          -0.30052616729202   -1.49463472966717    1.62011946892643
H          -1.55100350384543   -0.90332970845554    0.68991297316104
H          -1.82340640343444   -1.29671200520305    2.32658097165480
H          -0.84833252654553    0.10981399653987    1.95203960210406
