    26
        -50.47673590  Gyration_radius:  2.41878616023 Dipole_moment: 2.606
 S           1.58979788597194    0.04956508847728   -0.22281648411030
O           1.35496591740126   -1.19747093790951    0.48011664204310
O           1.56328059816634    1.20784796296477    0.65514676761156
O           0.63214819259434    0.22974736859972   -1.32484856894141
O           3.00708639224496   -0.06173583259255   -0.86349066716661
H           3.12226024653788    0.81007720376189   -1.28943802200463
H          -0.86022722447915    0.76941323944529   -0.90704710178023
O          -1.76002611638227    1.06533465485144   -0.62755210635017
H          -2.11739249657446    1.56756862060747   -1.36155462428264
O          -2.43855170422018   -1.53182197563643    0.04825515008673
H          -2.48147568217065   -0.60200476588355   -0.23275356648775
H          -1.81453924290477   -1.95270882040871   -0.58674921089272
O           2.35679169757067    2.37998445142496   -1.62758724497554
H           1.59474902139688    1.98382746106941   -2.06522098488683
H           2.11871572255893    2.41435634703854   -0.68778143644822
O          -0.75734816712847    1.50690349826477    1.92408425387430
H           0.16137058793182    1.54072545118895    1.58278975238953
H          -1.31478004035178    1.60927873455057    1.13681321270242
O          -0.36110535875502   -2.26331366681682   -1.47497332877574
H           0.29097421663784   -2.69243648167520   -0.91403801610392
H          -0.01144115503520   -1.36071233051870   -1.59511216959636
N          -0.78125351546439   -1.11553101344705    2.02513187135530
H          -1.55158535202645   -1.38908546078962    1.33038281702454
H          -0.85256536530552   -0.06599356399242    2.18850260333174
H          -0.82288819869953   -1.64757835456390    2.88651907661369
H           0.13303916047655   -1.25423688792766    1.52322137577493
