    26
        -50.46882820  Gyration_radius:  2.47850502712 Dipole_moment: 6.369
 S           1.02507525652135    0.27088869882041   -0.59435762020137
O           0.16625446815807    1.26330737230423    0.06496873817467
O           2.02452052593391    0.86171672587118   -1.44296455830423
O           1.55301990319223   -0.67194311363480    0.38955558728652
O           0.06767353950879   -0.60717450400009   -1.47995340406062
O           0.36034043903963   -2.91978132068047    0.95685518284442
H           1.06557358967968   -3.50541142728755    1.23706122906773
H           0.81188374435336   -2.11771111308853    0.59295904494710
O           0.77487698962276    0.45961331705113    2.61517235204367
H           1.26235809275904    0.00805369777580    1.88714810584208
H           0.45515800570248    1.26047882599059    2.18193181637850
O           0.59999467910368    2.98505437051042   -2.02019826513932
H           0.12199090793133    2.93979630964288   -1.18418362177824
H           1.35125530492405    2.37223056389347   -1.87620002843367
O          -2.08533909098480   -0.01393904481735    0.23975945711469
H          -2.01714190293320   -0.57390445546424   -0.53985227282084
H          -1.29410243680295    0.58083528204876    0.17689444014068
O          -0.40950771047155    1.01155612332465   -3.43594383294696
H           0.25042063969968    0.85766415086828   -4.11562206096608
H          -0.15000509820690   -0.03739428398761   -2.27053870493200
H          -0.14929862822482    1.86658132825252   -3.00128853374211
N          -1.18124052294456   -1.27505406192961    2.35618708346824
H          -0.43966368145550   -0.56753255867766    2.65342933162816
H          -1.70869833527598   -0.81037564714175    1.55427971245151
H          -0.66321405617336   -2.08828869898197    1.93832072148074
H          -1.79218464265554   -1.54926651667471    3.11658009045549
