    26
        -50.46941040  Gyration_radius:  2.46106134738 Dipole_moment: 1.964
 S          -0.81437558645234    1.38686849252504   -0.94146800514541
O          -1.51274839978808    1.77301029225490    0.26133393576911
O          -1.03205907130956   -0.00171702653330   -1.32140414387714
O           0.60884275805925    1.70186103609868   -0.87859452994455
O          -1.42796592076845    2.25402822117147   -2.11354247692807
H          -1.61858731375822    3.07108432838160   -1.66548746265884
H           1.42326718041809    1.43777005693598    0.52704744749030
O           1.89439413475651    1.21454663524046    1.36414971097830
H           2.56004558329709    1.89362711207251    1.48272697438294
O          -0.57645963532944    0.59453435749645    2.46910885217274
H           0.34371028790602    0.89536699553650    2.40686964309978
H          -1.05762717419275    1.11870396014799    1.79687027898188
O          -2.57678010670536   -2.23917441110240   -0.64803761530243
H          -3.47109936962170   -2.32447663603175   -0.97993064546870
H          -2.20560914738866   -1.44558259981282   -1.06114422854325
O           1.69826691857390   -0.50496715992760   -1.93547521592116
H           1.40320788761733    0.37876329112360   -1.64504543443881
H           0.91061029874567   -0.91463451248583   -2.30184889626925
O           2.29546172594093   -1.41170935844817    0.53012927640573
H           2.39982135381647   -0.54845732355695    0.96359407745881
H           2.27757429740354   -1.20814930968205   -0.42979953743027
N          -0.30786473597213   -1.45413426038537    0.83721512623239
H          -0.57196850963027   -0.93430840408834   -0.02726977187396
H          -0.88414041079743   -2.29171045782163    0.87885522414648
H           0.73791024367308   -1.64827957852748    0.78653192921586
H          -0.49582730862849   -0.79286374057616    1.64461544751006
