    26
        -50.47059104  Gyration_radius:  2.47588353947 Dipole_moment: 3.245
 S           0.58832866338228   -1.74423523358622   -1.17188156530751
O          -0.02119308134859   -2.73954801091708   -0.32541272249008
O           1.82799820362999   -1.20684376942768   -0.62443155119208
O          -0.32602357761379   -0.68469846468853   -1.58139660825054
O           0.98387772069694   -2.48398381811912   -2.51999267397231
H           1.32795778814522   -3.30772327996544   -2.19200664866989
H          -1.66283301512262   -0.28317733512514   -0.79426098251841
O          -2.46300058177531   -0.01009092335910   -0.27683755520695
H          -3.21557332208559   -0.17678597630970   -0.84599187155921
O          -1.01757151216520   -1.35605061938170    1.72443355433611
H          -0.68929857065900   -2.02522374891775    1.09183222273955
H          -1.70970752583501   -0.88817701954370    1.23895001288853
O           1.53715610621855    1.16369415792921   -1.73366237666918
H           2.02441660341183    0.38926954799673   -1.39273975894235
H           0.69962482286008    0.74717941879408   -2.00214558849609
O          -1.78044365374434    2.24023878162102    1.00616696386898
H          -2.09552926039963    1.48567680871543    0.46333144315996
H          -2.02238048667998    2.02756384553475    1.90993832393500
O           1.37267149506600   -0.19175607949008    1.79067180797990
H           1.69548787348980   -0.66132203508088    0.99359162208990
H           0.49818601283960   -0.60612068561720    1.97409425769809
N           0.89108464620824    2.09312503655101    0.65801641455404
H           1.42532399571471    2.88811991713801    0.98970180972664
H           1.14166606913998    1.86475142134946   -0.34997170136698
H           1.12615781713225    1.19838247010639    1.22217759017259
H          -0.13638326050502    2.26773557379024    0.74782557149453
