    26
        -50.47153655  Gyration_radius:  2.41200490097 Dipole_moment: 4.073
 S          -0.51391455811813   -1.37856618468164   -0.12995405246339
O          -1.95461886479884   -1.53464730734380   -0.03523565192597
O           0.10730167048059   -1.25823527801203    1.18686475452510
O          -0.16937176614080   -0.20982122825682   -0.95483063617726
O           0.05275294425592   -2.62854157887610   -0.83280562566954
H           1.00768112025716   -2.40927605997128   -1.03240397452209
H           0.84913339792165    0.93014515075562   -0.42914474945930
O           1.41884257358995    1.65328181288760   -0.06368524025688
H           1.94389722524501    1.97471791003089   -0.79803166965454
O          -0.49683142783197    1.18835146431472    1.96332952778362
H          -0.25357188121134    0.24005282998825    1.86103714243118
H           0.18556726036555    1.66598346100926    1.47281509319271
O          -1.78332198569199    1.68676652746824   -1.81684132154647
H          -1.20404778796855    2.43981611431814   -1.94686353441853
H          -1.19373016032879    0.91062128824398   -1.67377915430892
O           2.55034526471749   -2.03559658197561   -1.16093378046150
H           3.07487673803537   -2.82809578972745   -1.02904806069585
H           2.71195481544262   -1.46089399094336   -0.36217160292635
O           2.66237200319262   -0.59264536827362    1.01972902468913
H           2.49920431433511    0.33579421486514    0.79015977059063
H           1.77958812058051   -0.93122304572824    1.27603926509354
N          -2.68952435446752    0.87001935771219    0.55183399310114
H          -2.55472843817334    1.36948607835674   -0.35718829249963
H          -2.53187559585445   -0.16805098480001    0.33429170590041
H          -1.89413060971721    1.13443202750522    1.20951543767468
H          -3.60385000813284    1.03612516107750    0.95730164188970
