    26
        -50.45633140  Gyration_radius:  2.44899138048 Dipole_moment: 4.988
 S          -1.06611980789699   -1.62539501241421    0.89026842569819
O          -2.01827152410087   -0.98775362709112    1.76717861704526
O           0.29703784812490   -1.63368637427422    1.33660609692609
O          -1.16855134912178   -1.09700793975843   -0.49034450478171
O          -1.54209251023371   -3.14260518881344    0.77088965360973
H          -2.44847642957379   -3.08700476959116    1.05560738667407
H          -1.31434234366075    0.55485606268734   -0.44287485042943
O          -1.18839758238396    1.52434168317078   -0.58783906531702
H          -1.56367058595900    1.69774108169561   -1.45597704425349
O          -0.51160657802140    0.08255610031662   -2.96163511412716
H           0.02491247496170   -0.53120831369614   -3.46548382782527
H          -0.89485307156665   -0.43803156795999   -2.24168222169332
O           2.01554712100529    1.40842776795623    1.77953914279437
H           1.09301095743992    1.16539896419507    2.04262311887574
H           2.24385583837900    2.17267672551392    2.31062727545496
O           1.37087750972042   -1.51247545484412   -1.06649735273094
H           0.39305716326777   -1.50219716916445   -0.98214450673371
H           1.63115517961200   -1.80557094792168   -0.18180411378672
O          -0.58911951462057    1.21990152957205    2.18746993763936
H          -1.07099954447611    0.37158817797988    2.21656036035575
H          -0.96076685274090    1.68756038895772    1.43122711236432
N           1.47174811831749    1.11531436504877   -0.79833689405372
H           1.99065926306323    1.63614920126747   -1.49624437962818
H           1.52664577199739    0.06463030742850   -0.98369969184512
H           1.82699365586102    1.28810529661143    0.17785508539430
H           0.45176676269035    1.37368869311070   -0.81188863563065
