    26
        -50.46797845  Gyration_radius:  2.45732242689 Dipole_moment: 2.709
 S          -1.67559781841375    0.00014542732931    0.65260048683928
O          -1.28066455856571    0.19733597192293   -0.72686155234896
O          -0.77938820161217    0.70789140807429    1.56456716958363
O          -1.84579037934851   -1.38589022330356    1.02190862634948
O          -3.10123140280358    0.67733851198079    0.79590473820024
H          -3.50625457889794    0.18839946075406    1.50487537436349
H          -0.31167911616859   -1.94680248161350    0.47320392771073
O           0.65778347865288   -2.07695662410410    0.43942938264073
H           0.89224822750797   -2.16497556648535    1.37967073810981
O          -0.53178973331829    2.53253565544181   -1.73689670006535
H          -1.14938023823170    2.75325249253605   -2.43561919540544
H          -0.88353587630022    1.72387314827447   -1.30927996553216
O           1.81073362566615    1.25624773683785   -2.06677095863512
H           1.45908187180716    0.41654328872248   -2.43040496298807
H           1.05855073016015    1.88358146869363   -2.09570290487742
O           0.50928056941177   -1.18880865678703    2.99917849159231
H          -0.14421084239410   -1.70403065235337    3.47478157216215
H           0.01485465722614   -0.45212898491960    2.59023167674164
O           0.49150621211615   -1.08072991856125   -2.33733999492301
H          -0.27099108287165   -0.68184261551127   -1.88308753111859
H           0.76160286601227   -1.81345653416834   -1.77652346613569
N           1.58708261307947    0.44650128334088    0.38806102739933
H           2.37570576776784    0.60241435727080    1.00776689024634
H           0.71449631341091    0.82914228180074    0.81412877520133
H           1.75712128168256    0.86302730178079   -0.60078561268791
H           1.39046560442722   -0.58260751696141    0.29296396757184
