    26
        -50.45793236  Gyration_radius:  2.46119465041 Dipole_moment: 5.068
 S           0.60430288940517    0.75798785983253   -0.29888125217474
O           0.62250577833276   -0.69903620275521   -0.02494528875640
O           1.07332225211363    1.04166332457372   -1.63015884232619
O          -0.68930492244427    1.32308631108838    0.02900825903762
O           1.60157838523783    1.36970326053949    0.74920780500467
O          -2.83230358399214   -1.64972265107727    0.71939081251750
H          -2.42523082099346   -1.57820755829395   -0.19903111986711
H          -3.18185320845717   -2.54032850864071    0.78751594538149
O          -0.66419386933755    1.26797197618474    2.61643864215702
H          -0.80791475637617    1.46866374382379    1.65859085216655
H           0.23263149798560    1.56340457840103    2.79629160668509
O          -1.50166709220768   -1.55393039190070   -1.49627999264428
H          -1.66188095432246   -0.75987384395995   -2.05030110782497
H          -0.62604375432696   -1.40292193364834   -1.10285369233935
O          -1.47819071049430    0.90105165849471   -2.59080133717298
H          -0.51305980200203    0.99915026709585   -2.56374937465022
H          -1.77877461836499    1.35843954764069   -1.79742323814798
O          -0.71673922750726   -1.19207746685828    2.00281444429882
H          -0.76498097626212   -0.24619418569522    2.40972176229734
H          -1.64983028859556   -1.38773522703212    1.56272299987054
H          -0.08466953075370   -1.05471442679180    1.16457107321596
N           3.59374705576917    0.35613677062607   -0.57069614816741
H           2.96000956239417    0.49633254934179   -1.35461814628006
H           4.50101278512909    0.73482787063987   -0.81045957918488
H           2.49799607828773    1.06627734781180    0.41541428076285
H           3.68953181180169   -0.63995466942215   -0.42148938387789
