    26
        -50.46886222  Gyration_radius:  2.50842346941 Dipole_moment: 1.114
 S          -0.61318051558900   -1.44704233733580   -1.56822215032505
O          -1.85235712390445   -1.20502046839011   -0.83110313025479
O           0.21082027793404   -2.47026617765725   -0.98962810070859
O           0.10718609014696   -0.18950651157046   -1.78154987606601
O          -1.05109052691752   -1.94805884114872   -3.00288538941700
H          -1.66516984232610   -1.28094930525165   -3.29384162311477
H           1.48748264036970    0.10118471798717   -1.00044121868404
O           2.31840916631194    0.26643816325341   -0.48693753207656
H           3.02640978296329    0.28080243253322   -1.13271121497524
O          -1.78971281205129    1.54296711985728   -1.06558033400161
H          -0.99150535277579    1.10072185627212   -1.41125648369891
H          -2.40715430652350    0.81615069810833   -0.92653008447337
O          -0.95315813152065    1.96386341940551    1.45330210197666
H          -1.31095927020446    2.03743678173925    0.54092931889168
H          -0.01722570883043    2.24232670452437    1.38978823583527
O           1.71232993749441    2.33029336738632    1.18698047867605
H           2.28174226175578    2.19911829526880    1.94624114377892
H           1.95644152401270    1.64802954924614    0.53276921494433
O           1.41518858455725   -1.67215106492810    1.23201330088385
H           1.07956721085095   -2.19463050981119    0.47453903861403
H           1.96217591749567   -0.98734200778858    0.81347324418667
N          -0.98855641143060   -0.63363174139026    1.60539971936638
H          -0.00087424795012   -1.02242980783428    1.60778765893958
H          -1.42211420249253   -0.91760512632220    0.68993285652546
H          -1.52356494617644   -1.00929282802934    2.38095612033792
H          -0.97112999520171    0.44859362187654    1.63657471483805
