    26
        -50.47003567  Gyration_radius:  2.39732485125 Dipole_moment: 7.087
 S          -1.38089587150124   -0.50184663917717    0.30739992925347
O          -0.35351906382040   -0.05944696816983    1.25595361086400
O          -1.29775261197770   -1.93981222420608    0.10439605231557
O          -1.21762022292868    0.23084789997237   -0.95206521547073
O          -2.76763107651240   -0.17885005456240    0.88807194490277
H          -2.88097613330791    0.80176977977853    0.70595372433531
H          -0.03377782235574   -0.21567053220979   -1.92559475133825
O           0.76065026261046   -0.52048688363896   -2.44229490120881
H           0.46677511216225   -0.60062126105730   -3.35084604136469
O          -2.59492966158343    2.26817423037154    0.15341063774347
H          -2.10715696933530    1.87993404537094   -0.58819604573629
H          -1.91437067234559    2.62180610903737    0.76504848802071
O          -0.41523053193463    2.59033703864190    1.69971759796520
H          -0.39933489976328    1.61652754311747    1.75683971792937
H           0.41053358895139    2.83730813197106    1.27422423832031
O           1.64164171631517    1.13771862377296   -0.20303244251018
H           1.59510708525119    0.91388997236265   -1.13736202078319
H           0.81035176951588    0.81402575406739    0.18596765014233
O           2.20896931710798   -0.98068233005857    1.41814696588864
H           1.32762688162254   -0.77159820857922    1.77278271783630
H           2.45955317224100   -0.16286185452313    0.95186717216737
N           1.16002084684045   -2.38474726091762   -0.53978704431125
H           1.71556491293308   -1.92169028905004    0.24860061790527
H           0.12870177332553   -2.33870236567928   -0.24263455850141
H           1.21897227405132   -1.79630088065942   -1.39754551968536
H           1.45872681413066   -3.33902139603612   -0.70902253542482
