    26
        -50.47023701  Gyration_radius:  2.49845065989 Dipole_moment: 0.901
 S          -1.33217496144146   -1.50249611588790    0.07529754492004
O          -1.39307906869880   -0.50441084000879    1.13016576020767
O          -0.53972177069191   -2.66130204451015    0.41669928017683
O          -0.93011324207141   -0.91913297281175   -1.20216340080319
O          -2.81887894162801   -2.02154450841225   -0.11413057858342
H          -2.70326567808353   -2.93621152822689   -0.35042061184594
H           0.64753942330271   -0.62492542871249   -1.43100379572923
O           1.61564044778190   -0.45034565901921   -1.53049010328100
H           1.81721425942024   -0.59771398606757   -2.45574994294507
O          -2.43485782804846    1.21106955664291   -0.70430373988261
H          -1.95231286771430    0.48415889924029   -1.13625948933265
H          -2.51469418113331    0.90478381443990    0.20685691995235
O          -0.53242113874806    3.08182083503306   -0.62516985809487
H          -1.27182524270303    2.42811330117988   -0.63566376866215
H          -0.67306012761424    3.65509880829557   -1.37922431464534
O           1.76194994054385    1.84913732766226   -0.00563942371389
H           1.82639031813848    1.14951561481665   -0.67870831918297
H           0.96814423653399    2.37912607727508   -0.23605011096732
O           2.00122053039599   -1.96120750911640    0.77320388535889
H           2.16207593367457   -1.56096397884760   -0.09643931565715
H           1.12912896745764   -2.40140238562050    0.68829993348932
N           1.03686090132175    0.21254940183904    1.89212151672142
H           1.55779237683623   -0.67258769593577    1.61474781746436
H           0.02416213937533    0.00949882408876    1.70511947335715
H           1.19107269573115    0.46340967543924    2.86174460357346
H           1.35721288820620    0.98596249741875    1.21716004767927
