    26
        -50.45253079  Gyration_radius:  2.52342869766 Dipole_moment: 6.018
 S           0.14651543744787   -2.04356834994187    1.05724547886523
O          -0.96983965798422   -1.30797018966544    0.50355870868497
O           0.06685741964436   -2.36996439552069    2.43311101200843
O           1.43698350772134   -1.22981594607452    0.81213872653988
O           0.35111320379152   -3.32612332629573    0.21817110612138
H           0.40952634620982   -3.04836934534453   -0.73405589268808
H           1.38704247475225   -0.57545857866960    0.01537413730393
O           0.58316877779710    2.43210267398158    0.61707763400943
H           1.14459788734791    3.07689842228848    1.04903149606346
O          -1.59035895130584    2.50306228901534   -1.10788448428158
H          -0.87570836776115    2.55296385808637   -0.44946330362730
H          -1.47420654631109    3.24704617163582   -1.70029419640957
O           0.56430916517781   -2.25834512456182   -2.16268632920232
H          -0.19921225127047   -1.68443870872856   -2.32469701816761
H           1.33627741341246   -1.68339672662808   -2.16345544834370
O           1.27919053039308    0.43392871410704   -1.08264716863138
H           0.37606407730114    0.29239002367625   -1.47064295553315
H           1.19272413447740    1.24906407122264   -0.55132759224191
O          -1.19617040450464   -0.09147827491334   -1.83700795991204
H          -1.56377868642525    0.80316389723776   -1.70860598981914
H          -1.35144468681862   -0.55327834968970   -0.98981327520449
N          -0.23434558372062    0.67754662854760    2.42203925374035
H          -0.77163933483472    0.94657842659807    3.23797243125250
H          -0.83084661771054    0.08887970526838    1.84617617614210
H           0.26967456227959    1.79931823323313    1.33393294418010
H           0.51350614086013    0.06926418118633    2.73675248917925
