    26
        -50.47132938  Gyration_radius:  2.42244869458 Dipole_moment: 2.378
 S          -0.19595183667675    0.66133299255444    0.68411576690704
O           0.59221174884484   -0.01761582695087    1.70987416461846
O          -1.62475462566001    0.60099437145351    0.94915772201025
O           0.10753136190698    0.13766901760368   -0.64668806531816
O           0.27425693772241    2.14123774016494    0.73120764435063
H          -0.26442243493067    2.66976461703290    0.07825053984597
H           1.40847471172693   -0.89620666086413   -1.23739317302947
O           2.14038895434994   -1.52600142248011   -1.08663306200021
H           2.77552130434037   -0.99271644876264   -0.57084274153799
O           3.02657290010579    0.35851992487693    0.65247743358453
H           2.19213315561204    0.28531153706911    1.15300759177834
H           3.08180104211697    1.27523611255011    0.37735696115874
O          -2.21523745890480    0.97011920071762   -1.62997676774366
H          -2.47643248528182    0.85095431903474   -0.70234860473688
H          -1.31468054291395    0.59956657092505   -1.64449599624278
O          -1.28339871310892    3.36178760923890   -0.95732258906483
H          -1.69407628945163    2.57695650903862   -1.39666551675252
H          -1.98744823852243    3.80936182310538   -0.48312009009888
O          -1.86557154261404   -1.92415427121225    0.14296990350919
H          -1.87549766384746   -1.03158724441155    0.55180599000456
H          -2.06646286342727   -1.78381219162913   -0.78604761264282
N           0.65980457085748   -2.47108351538360    0.83399421557504
H           1.32775416034608   -2.29641777902485    0.00823691944042
H           0.90504044559659   -3.28419081801210    1.38788590807482
H           0.70316267796900   -1.57312658636532    1.38935597869185
H          -0.33071926616137   -2.50189956026541    0.49183745961543
