    26
        -50.46514020  Gyration_radius:  2.60232256294 Dipole_moment: 0.880
 S          -0.66302463509772   -0.67305525212583   -1.98660456289481
O          -1.38158876646109   -1.26443941350390   -0.87001808083094
O           0.69769288336457   -1.13959099053165   -2.10776753151926
O          -0.74688009546270    0.78637641339434   -1.96216398383331
O          -1.42696204120029   -1.14799185512432   -3.29290991907040
H          -2.34624595155978   -1.05074410114630   -3.06110875486103
H           0.64788710147145    1.13407055176433   -1.14117307970395
O           1.44131606716850    1.13004251671130   -0.55733160013096
H           2.13350512688225    0.73338891024924   -1.09234596201828
O           0.06118432703538    2.31991076719924    1.68646776627797
H          -0.78905336065434    2.22546374168077    1.20918240506067
H           0.73871125894790    2.19191798459526    1.01277239820274
O          -2.06173458085484    1.92173508763467    0.05557053070070
H          -2.46206577838470    2.70841124525748   -0.31834096349997
H          -1.63827403516690    1.45025734886422   -0.69131264944554
O           1.77967786922598   -2.80566753304759   -0.33912875165305
H           1.50031948549608   -3.69705385238759   -0.55161190365657
H           1.46926349081345   -2.24204155863734   -1.08183433653471
O           0.09086965142085    0.27318895678296    3.37601250615094
H           0.00583716917648    1.11754632878654    2.86731277730763
H           0.73103379220938    0.43802760354810    4.06889056315399
N           0.44353272913674   -0.89027986018042    0.98573691920824
H           1.03301993512048   -1.72988496140862    0.83653418429406
H          -0.44176531446433   -1.05158308129476    0.44562547688340
H           0.26848425543217   -0.65530426470988    1.98764149077728
H           0.91525942639232   -0.08270073247783    0.52190507162790
