    26
        -50.46737452  Gyration_radius:  2.42541396481 Dipole_moment: 5.358
 S          -0.09672913871248   -1.77181972197895   -0.22588934417956
O          -1.31353283259140   -0.99805196615228   -0.46663790419897
O           0.52208815398926   -1.43744696975989    1.02949255038936
O           0.79574860017975   -1.69979913371923   -1.37208444403046
O          -0.54433984148062   -3.28568478159251   -0.13994299711248
H          -0.58696226019664   -3.51022894274325   -1.06288222351498
H           1.32725803920289   -0.11598755929428   -1.48161701955270
O           1.67298420768169    0.80065888962405   -1.40333562484570
H           2.62912019307597    0.68878822827148   -1.42077941702718
O          -1.05334753309535    1.40614047588027   -1.60683392111066
H          -0.11192251769576    1.43364688696040   -1.82582110141290
H          -1.22622026840470    0.47593319624983   -1.34895154520388
O          -2.66460477868292    0.00394282719017    1.54173729600976
H          -3.58333288449580   -0.16836444650471    1.32938345390101
H          -2.13506973500636   -0.48489920682557    0.86778486806735
O           1.17831076424155    1.11754525504196    1.25159314452945
H           1.50986516710298    1.16009210612390    0.33109607969664
H           0.96775861234235    0.16807645885161    1.37493756990948
O           3.19816908270240   -1.30457159951445   -0.09146233806683
H           2.44926218313173   -1.63175447990405   -0.61027957346705
H           2.90541818279653   -1.35799772280370    0.82153160247603
N          -1.18525064586952    2.13935299578230    0.91759675323333
H          -1.22243343411701    2.03767715107927   -0.13927700668237
H          -1.86037919869882    1.44386679436148    1.31177539361695
H          -0.19502794724565    1.80782122878507    1.18705018175790
H          -1.37683016015680    3.08306404659030    1.23181554682265
