    26
        -50.47159726  Gyration_radius:  2.37775067096 Dipole_moment: 7.589
 S          -0.41117480909072   -0.90676115695807    1.06220237405828
O          -1.15150524721271    0.00258259117112    1.91457395252098
O           1.01854219242300   -0.60650796165157    1.08029991909334
O          -0.91465813855979   -0.86189168983660   -0.32244506443433
O          -0.62041170247201   -2.34347378002169    1.59017853448591
H          -0.30500863213226   -2.92062920033894    0.84342118925598
H           0.05102701332818   -0.08539247207073   -1.32121324499190
O           0.56379238528025    0.48541851747804   -1.95765942800655
H           0.16724927908676    0.34309478663482   -2.81922237392502
O           0.10996388407388   -3.33481224853491   -0.68698019662079
H           1.02104347269136   -3.00473689679913   -0.84320329889672
H          -0.46611140680653   -2.61669242555377   -0.98377234616486
O          -2.44480550731329    1.40745641026127    0.15448512411574
H          -2.10220128791993    0.93248489193162    0.95194068768147
H          -2.54271460247155    0.69720783646862   -0.48815267824902
O           2.26943621647593   -1.74824287687293   -0.96426429236743
H           2.14682769336581   -1.05166956953254   -1.61648828625981
H           1.98357875813859   -1.34569911033569   -0.12010565035776
O           0.92221834019143    1.83612878086542    1.95558695520412
H           1.17293293956762    0.92149565460608    1.68144322917105
H           0.15751793657630    1.68436726149820    2.52324354233739
N          -0.11846293379743    2.53512183097856   -0.34474831049395
H          -1.12811609498896    2.22089360873449   -0.19492937580046
H           0.29484740022612    1.89207147945155   -1.05734869547633
H          -0.05431476087512    3.50675535802419   -0.62785629549052
H           0.38050762228260    2.36143039033670    0.59101399957626
