    26
        -50.45785794  Gyration_radius:  2.69923388699 Dipole_moment: 4.184
 S           0.49542169966902    2.16813683322103    0.19674706891761
O           0.43916175185176    1.88676150014066   -1.23200181307992
O           1.78898415425130    1.90870873677503    0.77533053994640
O          -0.57067490347449    1.41052377974462    0.89631302070165
O           0.17032983520657    3.68328252248832    0.40847603800424
H          -0.77607572506047    3.77294399996407    0.19219343104435
H          -1.31296604050681    0.02438108605845    0.41506479040896
O          -1.68761911932057   -0.81749692118180    0.05637773881425
H          -2.58420097864824   -0.61471629100300   -0.21366240090725
O           1.29646544709230   -3.19477234154037   -1.85684161221440
H           0.86144202454461   -3.31357269496106   -0.98883094412004
H           1.74345180002627   -4.01751399199083   -2.05491586993334
O           1.37989617627875   -0.55941859084119    1.46386442163987
H           0.52878194611920   -0.33931394650292    1.85821107949504
H           1.78600319250814    0.32851069929854    1.32988279014072
O           0.10515533340170   -3.02467106169717    0.60987212435317
H          -0.69171842676726   -2.48198002184485    0.54597849397793
H           0.72699106313420   -2.51852315308477    1.14573977441819
O          -2.45746736307863    3.14924339574363    0.36494533343894
H          -2.85615317619892    3.47586263250969    1.17434538220381
H          -1.91075658672926    2.37435884817369    0.61373777808279
N           0.72474216989755   -0.66709540595355   -1.17440761553014
H           0.73161670510778    0.36643155099773   -1.42426543203027
H           1.18240098946074   -1.31652281971189   -1.82352514942948
H           1.15332160168077   -0.74596386169798   -0.22228782085128
H          -0.26653356044378   -0.93758447310930   -1.05634112749620
