    26
        -50.46942751  Gyration_radius:  2.43987662808 Dipole_moment: 3.756
 S           0.42458267786507   -1.26868203481397   -1.16331244900092
O          -0.45264263248169   -1.87589943523377   -2.13042922017198
O          -0.07118477987682   -1.47728660349875    0.21857084000729
O           0.60090798401174    0.16455659137846   -1.39437164832702
O           1.80875617816566   -1.95498263033235   -1.24900784908573
H           2.38387873162172   -1.54182886686044   -0.55254304723527
H          -1.19992820395345    0.85015311313349   -2.46010461597076
O          -1.94837068112821    0.24339369788886   -2.43934410655973
H          -1.51699520543881   -0.63744787675824   -2.53683580927989
O           0.67126019659065    2.18220917256679    0.20184677810564
H           1.27759737197288    2.82491673787602   -0.16730840042218
H           0.64586924317652    1.42608592921377   -0.44430620236994
O           3.20947617468470   -0.96562653112035    0.73259543691660
H           2.53598911751657   -0.53629227461516    1.31562581822029
H           3.55642818985598   -1.71311618460001    1.22333415607400
O          -1.47006155534764    1.66759304998377    1.78528786726061
H          -0.93915466476982    1.17482153593740    2.42196086564263
H          -0.81952767390374    2.10404272445241    1.20636332420027
O           1.10953108248967    0.10723096243408    1.96917267314625
H           1.10181626259141    0.94616264533257    1.47886759816339
H           0.61663895974124   -0.52783803817736    1.40315938114390
N          -2.33840682447939   -0.23593554820082    0.12538166023091
H          -2.34323009488189    0.06724799259452   -0.89397944137738
H          -1.48245729377959   -0.86955957755841    0.21508625950256
H          -2.17020633321972    0.57873012403434    0.77247661802653
H          -3.19056623713299   -0.73264864511128    0.36181351313906
