    26
        -50.46539002  Gyration_radius:  2.54781366265 Dipole_moment: 1.343
 S          -0.45356401601083   -1.79842290525063   -1.25398981231515
O          -1.51486956369487   -0.81632361504029   -1.06758827022549
O          -0.31861694327710   -2.71671688979069   -0.15518766561761
O           0.81177805843826   -1.14511816016621   -1.59327700055051
O          -0.88423440523984   -2.62462166487821   -2.53371640276830
H          -1.36387280473224   -1.96367150243682   -3.02281530527803
H           1.60521229762193   -0.67252706739693   -0.26335109810785
O           2.05491094568095   -0.32840491858249    0.54911282929143
H           2.96814410007158   -0.61313088654770    0.48549453651636
O           1.17778881301286    2.26285261595204    0.00107525157512
H           1.56802662054348    1.42227054301825    0.29169753663943
H           0.85711753877428    2.09236163969315   -0.90729701548657
O          -0.85966049130417    2.60355950743797    1.59472531740318
H          -0.47387153302328    2.90644993804248    2.41790175056264
H          -0.10820212618565    2.57270919400299    0.93830120780035
O           0.48956905009151    1.33918254917266   -2.46140318531879
H           0.52837164725113    0.40450480736277   -2.16779869326455
H           1.17871290065410    1.44238492837693   -3.12013538324690
O           0.20181345060677   -1.53193052364076    2.15707309225571
H           0.00790228568748   -2.17292979402608    1.44053952996886
H           0.99419304956144   -1.06506964391990    1.83771162615654
N          -1.71151918067722    0.09065697146119    1.38011781001413
H          -2.63464557361259   -0.06759503834385    1.76874300815924
H          -1.69941870119116   -0.19584342062969    0.35988590567743
H          -1.43754610317079    1.10605750333429    1.47254559057459
H          -0.98351934586490   -0.53068416721278    1.85163484959008
