    26
        -50.46495974  Gyration_radius:  2.54694883913 Dipole_moment: 0.786
 S          -1.99119622495433   -0.81604387008011   -0.88775172053348
O          -2.45921135260172   -0.85604217571202    0.47335617087290
O          -0.78172631840562   -1.63144454930556   -1.05968280319848
O          -1.80077285098340    0.51993234934103   -1.42385162750216
O          -3.10288621786949   -1.47276635326185   -1.80721518016811
H          -3.02158059895710   -0.94164640131479   -2.59226474044885
H          -1.02277749547253    1.56694687434121   -0.48564625301349
O          -0.62019044641227    2.21416195887277    0.14947421280929
H          -0.97518204850198    3.06987355425441   -0.09650630326579
O           1.33728851495667   -0.48085088588165   -2.19507170142911
H           1.58658083983452   -1.06500833942982   -2.91248409808911
H           0.49719071304399   -0.83374104329283   -1.83406341127195
O           1.96051942999402    2.05402491182710    1.03134538886414
H           1.09864876272948    2.15055257361515    0.58566696074789
H           1.78114479045718    2.09500729798808    1.97232133836515
O          -0.93348530852683    0.43412082154359    2.20679251766604
H          -0.80428053214266    1.22618765292724    1.65787118550958
H          -1.68265213319166   -0.02373989808091    1.77288404241029
O           2.74448392043815   -0.34959776840410    0.10147533492089
H           2.65946463445977    0.57642239336894    0.40798524432295
H           2.39862349779379   -0.34362740674038   -0.81584697340633
N           0.63412798872865   -1.43672767994400    1.17049043042983
H           0.04570098444013   -1.64743896645623    0.32515028517857
H           0.76565618761469   -2.27165715836013    1.73013414730385
H           1.57405691626375   -1.04386762204394    0.80881877332564
H           0.11245434726275   -0.69303025976818    1.71661878959875
