    26
        -50.46203255  Gyration_radius:  2.57070028979 Dipole_moment: 3.172
 S           0.16261954099021    1.50982469817392    1.96946139114852
O           0.09275976453485    2.24833279557411    0.72337244378144
O           1.37912281679438    0.71735516171082    2.09352777217891
O          -1.03003507962511    0.70933291006618    2.19843174901947
O           0.22709949086928    2.59174622932944    3.12480445034317
H           0.52284028910151    2.08695358305447    3.87603044947123
H          -1.08663930809177   -0.74154912230310    1.48952742243265
O          -0.97670791743095   -1.61246199798272    1.02938106358586
H          -0.77652841001210   -2.24571808199364    1.71997543029830
O           1.39931747151931   -2.36522295050143   -2.16932307948799
H           1.58411697637686   -2.64763912622166   -3.06482012544457
H           0.47523056995554   -2.04945657368108   -2.16798908782822
O           0.82112696275048    1.55260127489371   -1.76204200196869
H           0.69825809691387    2.07962469028525   -0.95124014716097
H          -0.04535740810109    1.51353687410781   -2.17754119381147
O          -1.85683040914766    0.99867265605438   -0.61110046086615
H          -1.20859460948814    1.52108228742061   -0.09807857905948
H          -2.51466193013191    0.73075469506941    0.03378184155687
O          -1.15444465624461   -1.38647780845744   -1.78230365082472
H          -1.41051829314163   -0.47852597404234   -1.53315404207117
H          -1.44174068414585   -1.92363000944371   -1.03720650137909
N           1.24867978217646   -0.56991491798373   -0.17983036607819
H           1.89336921211277   -1.25746520031757   -0.57712953989135
H           1.08408219693347    0.18011446703218   -0.90441848577046
H           0.35430577140986   -1.05456250732307    0.04728878301829
H           1.55912976309539   -0.10730804251654    0.71059448478076
