    26
        -50.47039567  Gyration_radius:  2.41552082822 Dipole_moment: 4.732
 S          -1.17606040412840   -1.59376459794487   -0.45551024021247
O          -1.96577782355170   -0.81731640211378    0.48677835903133
O           0.06227840933240   -2.09323488913735    0.08701762670657
O          -0.98993358302083   -0.85367096646000   -1.70676773347623
O          -2.04321208974354   -2.86442048549762   -0.82703453372729
H          -2.86906248916558   -2.47869978548737   -1.09840494411603
H           0.67136955127453   -0.90630541680790   -2.02771848241952
O           1.62148296304073   -1.05943875630971   -1.84575156122125
H           1.59158094828241   -1.79110904105368   -1.21526021659770
O          -1.96712123021537    1.45358202707467   -1.01562984957075
H          -2.48740303725726    1.04793538897066   -0.30999308955186
H          -1.59118600533597    0.66751970132511   -1.47485589013057
O          -0.60943424914652    0.52845501178544    2.34848495916603
H           0.22615018483641    0.00822707811843    2.41804619501337
H          -1.20498842120472   -0.02947523294298    1.80407846137771
O           1.63160422416688   -0.78450754407476    1.84051372480672
H           2.08988158445738   -0.20660548341773    1.21575059930401
H           1.12987797220267   -1.41570706381301    1.29193897927942
O           2.34462857054254    0.93872878822858   -0.34877115640980
H           2.08063417755394    0.19161789494794   -0.96379277855655
H           3.17234486041499    1.27934892785760   -0.68996181672644
N           0.07155206031959    2.18725537672453    0.49061451234749
H          -0.70957982713279    2.02314017182550   -0.21108867249597
H           0.15267656185724    3.16845107795637    0.73128723398161
H          -0.20084753151952    1.58148018509620    1.35868762373120
H           0.96854463313979    1.81851402513382    0.11734268047309
