    26
        -50.45793236  Gyration_radius:  2.46120456599 Dipole_moment: 5.067
 S           0.58217111926656   -0.81418902201776   -0.16299136100753
O           2.13935162769438   -0.61500836286717   -0.21550151210056
O           0.28411262772839   -2.18911210209002    0.14280387152237
O           0.12737605662994    0.08581639543451    0.92394216360033
O           0.09394654058756   -0.35168169175113   -1.44673492874975
O           1.54762567256147    1.75074414505664   -1.85310560216059
H           0.99147188583151    0.93582264995886   -1.92381516627796
H           2.40903340166987    1.43477943891979   -1.56663743154802
O          -2.30092397435427    2.37236087855109   -0.58223374553652
H          -2.50059903376296    1.45242197402921   -0.22425818289758
H          -2.89003237166650    2.97195129866041   -0.12022584686262
O          -2.56888651312855    0.06392237073513    0.55283543577409
H          -2.65539304406554   -0.69884578415609   -0.05858281532787
H          -1.66364840400239   -0.00408230091646    0.89954388110755
O          -2.12109822576414   -1.98218939252223   -1.13190817525137
H          -1.69090804803964   -1.45000565852337   -1.81067047601231
H          -1.38173301942343   -2.35271947274370   -0.62410405820927
O           0.11353867250590    2.43282859823024    0.12411547854213
H           0.14631195581122    1.46573780351109    0.55389804537187
H           0.71306882342986    2.33305882962155   -0.70844783900279
H          -0.87766964433934    2.50475067571854   -0.21493563694417
N           2.37082413986211   -1.91753890284093    2.01792909937398
H           3.03865476582832   -2.61465001295971    2.32127528200694
H           2.45531020771255   -1.06323374742532    0.62490483055519
H           1.54055003459799   -2.38788213292797    1.66406083995156
H           2.09754472683083   -1.36305649469075    2.81884384008562
