    26
        -50.46818431  Gyration_radius:  2.40732190793 Dipole_moment: 6.148
 S           1.55520882795155   -0.29478870105649   -0.73257367933878
O           1.46056637997334   -1.50328778484143    0.08824923804909
O           1.74372866875278    0.89314264742317    0.05454079527911
O           0.43160654738980   -0.21933584224746   -1.65937974017436
O           2.84070845859448   -0.46116323775003   -1.63731982350684
H           2.57256451887106   -1.09535550156213   -2.29487076690252
H          -1.08171729229294   -0.42222896796593   -0.95185859891511
O          -1.85361463265627   -0.64201800004274   -0.38346341304931
H          -1.96230714231858   -1.59495587604398   -0.50705400048102
O          -0.67578367792628   -3.11205490307465   -0.28232066985915
H           0.14755330451344   -2.59129263214306   -0.20766390041192
H          -0.41944146871782   -3.98254540318381   -0.58793288732865
O           0.22870699589553    2.45553406775053   -1.66264504464637
H           1.00363260687092    2.56764873523018   -1.10272671865019
H           0.22510635860459    1.50574310821236   -1.87106360473500
O           0.17729132490733    1.82161769936095    2.06838262311870
H          -0.56552651542747    2.15364371171942    1.50525936325900
H           0.93088098341456    1.73677299059721    1.45975517852219
O          -1.69098380842013    2.23773243449394    0.23255562405096
H          -2.10142585892044    1.40264379643732   -0.01384507145653
H          -1.10926759984404    2.47800295469249   -0.51970918199195
N          -0.37855539966577   -0.68459093205861    1.83328172265596
H           0.46395344670667   -1.06977137119614    1.35122678274587
H          -1.13149053621268   -0.67409969297606    1.09136361131681
H          -0.64472007143379   -1.25366939472915    2.62941796918316
H          -0.16667439861274    0.34867609495479    2.10039418327050
