    26
        -50.47201758  Gyration_radius:  2.51764792162 Dipole_moment: 1.425
 S          -1.94001918871661   -0.48301409706204    0.06071975639201
O          -1.92655144074139    0.93491624253085   -0.23069155393706
O          -0.80272076871485   -0.87171211758352    0.89519445079802
O          -2.05910060752580   -1.33143231818281   -1.10541817619748
O          -3.23566829071474   -0.73793827336819    0.93238296090169
H          -3.30607576229481   -1.68620040532578    0.90827094001807
H          -0.67385421916313   -1.30838197388276   -1.94020122571437
O           0.19865701443050   -1.21901746952413   -2.39888315614421
H           0.08142806401667   -1.59960278982722   -3.27098599789984
O           0.29056334775892    1.42672119139533   -1.70044228033766
H           0.41819310143251    0.55658292828572   -2.11715119192190
H          -0.62601623861256    1.41879721300841   -1.37181607566915
O          -1.03363226905050    2.59549291023692    1.69043646754603
H          -1.58829083625412    3.37465809641605    1.74019073536588
H          -1.45129672396338    2.00807525765723    1.02884906706551
O           3.19979074822623   -0.45994190461559    1.07102470751909
H           2.66450334854821   -1.13959693344291    0.59151402640338
H           3.54849328050304   -0.89788928642425    1.84809814878770
O           1.43782811462814   -2.09877465836427   -0.06768675639233
H           1.26070028450393   -1.90120914854537   -0.99967954142598
H           0.61827750487685   -1.84294106786000    0.38921301557117
N           1.01256679922155    1.06923722943884    0.82704440072672
H           0.70344652358095    1.86405804461616    1.39461479425521
H           0.93407849649537    1.32513768770252   -0.19474277806058
H           1.96211654220070    0.70386068816294    1.04867597310416
H           0.31258318534672    0.30011494455268    0.97146929930463
