    26
        -50.46999594  Gyration_radius:  2.51759746058 Dipole_moment: 1.008
 S          -1.64758919404539   -0.83851279769207   -0.36103009228094
O          -1.81975056775326    0.54549868499211   -0.75080089490201
O          -1.27799626708124   -0.96393426818979    1.04724339624768
O          -0.73235010090329   -1.57348430085395   -1.21083154502250
O          -3.06495953783978   -1.51880109601754   -0.52244240015878
H          -2.88289203163635   -2.44004985948330   -0.36578445724592
H           0.68285040027483   -0.68103424556634   -1.49364386219361
O           1.37446757779695    0.01149873583026   -1.45972230978125
H           1.01949312460293    0.74107466229952   -1.99812326685311
O          -0.34569822496367    1.82666310496763   -2.55700484691109
H          -0.69003404575954    1.73356688973618   -3.44603437656689
H          -0.96874026448810    1.34888672490849   -1.96851349149813
O          -0.67845625680452    2.87129882427545    0.22434728423854
H          -1.33155801124263    2.18126927304830    0.02134704140812
H          -0.35933219471743    3.16381925354962   -0.63544176756448
O           0.96637261769549   -2.44617722188407    1.08437925955006
H           1.14096799452924   -2.52539082108290    0.14311231860970
H           0.08734380796838   -2.02733803520859    1.14578800232067
O           2.38433906176611   -0.69620631094380    2.59518136011795
H           2.00995752542788   -1.43120857728971    2.06264516134450
H           2.31367291685940   -0.96828867535756    3.51074421653067
N           0.77759721965761    0.75880352533594    1.00873298014726
H           1.17124249416292    0.49689232852042    0.05699564747621
H          -0.05735120264443    0.15141158391657    1.16064425601472
H           1.47884114149610    0.53652840301735    1.73936971583760
H           0.44956201762499    1.74321425515725    0.96884266114527
