    26
        -50.47041666  Gyration_radius:  2.41787510366 Dipole_moment: 3.068
 S          -1.52626066328777   -0.69936029383154   -0.62696224380429
O          -2.06695226490979    0.63074657733748   -0.41414934050476
O          -1.50526002641260   -1.48791958075928    0.59131320986406
O          -0.24109594705277   -0.67690457677427   -1.30159878297178
O          -2.50904599587321   -1.43815485998705   -1.62259994367889
H          -3.28619590816234   -1.54903429898985   -1.08586909205652
H           0.74236002268956    0.63796251976508   -0.82859287326437
O           1.20836088799247    1.44887658708871   -0.53999921059507
H           0.91252671138518    2.10407207713221   -1.18880172841177
O          -0.78492357268852    2.07754775109231   -2.32909047235818
H          -1.35262092698089    1.65702672227390   -1.65934929552499
H          -0.69136107411144    1.42960669112976   -3.02945387158444
O          -0.60721433544207    1.94272014336972    1.42327801461600
H          -1.32743760664859    1.62384598784897    0.84697070712791
H           0.15014539798734    2.04434918189153    0.81280439989353
O           2.51754159283690   -0.38379117638407    1.14054752402927
H           2.40280534859270   -1.16191009372000    0.55429875589656
H           2.38521252528183    0.39039907538759    0.57411852771482
O           1.71077000367037   -2.30967376817932   -0.54381255524478
H           0.92291721407325   -1.80408194233915   -0.83224528202036
H           2.15845252467896   -2.58795142207701   -1.34429257759101
N           0.16068956762773   -0.39300281450057    2.31168509840313
H           1.16373034765988   -0.45558902356288    1.94890725068196
H          -0.16301342778912    0.61284096669253    2.16111271677106
H          -0.46832109571343   -0.97396699978646    1.69985645775876
H           0.09419069058217   -0.67865344011967    3.28192460685446
