    26
        -50.47304502  Gyration_radius:  2.41244044912 Dipole_moment: 4.426
 S          -0.34388344440989   -1.31392050204722    0.38640702062442
O          -1.55451212877093   -0.72296770927536   -0.17416686107595
O          -0.42954061295460   -1.45946648001363    1.83158091719556
O           0.83083301097938   -0.50795701934271    0.01886029618740
O          -0.14846487735355   -2.72248709015388   -0.20709197601078
H           0.09361307278422   -2.57967018062922   -1.16897499143955
H           0.69699256955530    0.86564104033577   -0.85883890812011
O           0.55041925219425    1.73563354530896   -1.30272566394118
H           1.41100871155786    2.15314494275205   -1.35834641812359
O          -1.48489638673743    1.82868081441718    0.52780158202674
H          -1.72951807906251    0.91558916720789    0.26052632709394
H          -0.84061757929849    2.10291720645187   -0.14857968689345
O          -1.09280665705949   -0.07055825509388   -2.70526995092412
H          -0.55988416451060    0.72245231566459   -2.55646065637819
H          -1.44452999461166   -0.30190950410672   -1.82053580244235
O           2.30739398643415    0.76235831968186    1.77609253890146
H           1.85105813352717    0.25996007003707    1.05834051096427
H           2.91767540698313    0.14256070916725    2.17842998002929
O           0.32060230044652   -2.27189146344229   -2.70267920439368
H          -0.15829080815101   -2.91303796266508   -3.23221867858548
H          -0.15536555144099   -1.40481215560269   -2.82315297120269
N          -0.21018244397286    0.97998679820424    2.64102458449096
H           0.81552423169143    1.12140699247611    2.50356984293637
H          -0.74659517486570    1.48219758458400    1.85944575701033
H          -0.37238293787376   -0.06213699880059    2.45286781398473
H          -0.52364983506555    1.25828580486529    3.56409460808316
