    26
        -50.47008315  Gyration_radius:  2.50927846965 Dipole_moment: 5.867
 S          -0.54273652346385   -0.80589832121486   -0.73130166516302
O          -1.20352935475475   -0.56149817944634    0.56988863700893
O           0.62847892798877   -1.62722629333090   -0.54385229429424
O          -0.23109898233693    0.47532353713304   -1.36650229994598
O          -1.54916303871590   -1.56017678672819   -1.62434975448616
H          -2.13208819054223   -0.83497380785887   -1.99777281439934
H           0.79438282086959    1.38819840021843   -0.56613361910493
O           1.41565527809531    1.90298269073097    0.01830993344872
H           1.25385810317132    2.82811337839457   -0.17297354874767
O          -2.73496005307276    0.60553009726852   -2.32096707370022
H          -3.17325516592980    0.84785366361336   -1.47847503287662
H          -1.83697213769061    0.96383385283385   -2.25057040892436
O           3.05126444367920   -0.36019511806295   -0.65286789504357
H           2.23080074798245   -0.81980658272918   -0.90313050183854
H           2.80572434048357    0.56673152483479   -0.55485148337231
O          -3.41568612725517    0.85349379895511    0.27194282307059
H          -4.13891035241111    0.31011270675404    0.58968937971484
H          -2.59324476888004    0.34887771468489    0.45792193591726
O           2.45081604708648   -1.79067717133019    1.51814710861124
H           1.81354186505880   -2.26374461087414    0.96233723124279
H           3.01334836413675   -1.33331507054746    0.85509047884709
N           0.82074668702415    0.18834190718625    2.01704542913924
H           1.16116884833079    0.98749352052885    1.44421141790556
H          -0.07059298840986   -0.14803041970409    1.53887995514675
H           1.53188744429258   -0.62000415346214    1.94050357128386
H           0.65056375531995    0.45865972248099    2.97978050071062
