    26
        -50.46386988  Gyration_radius:  2.49065339289 Dipole_moment: 4.511
 S          -1.29080344026629   -1.28982528485553   -1.35041677362915
O          -2.06164048540546   -0.24778434313488   -0.72253505182067
O          -0.92372802041760   -2.37548982759600   -0.44855707508667
O          -0.10946144941333   -0.77784342060057   -2.04681314047924
O          -2.21167282031509   -1.93679584659999   -2.46080924796869
H          -1.72439685075752   -2.71575162347365   -2.70902066061868
H           1.22264830266543   -0.55084844095744   -1.15875590548601
O           1.98706190775008   -0.36041232816645   -0.55800101365139
H           2.77921793927656   -0.46461464797094   -1.08657218416917
O          -1.12818235194675    0.85473220713904    1.52717753957502
H          -1.67663103030090    0.52474439489469    0.78952693149924
H          -0.48541590745385    1.47140416951458    1.10586673718350
O          -0.74880746162007    1.84291140977291   -1.99791033944873
H          -1.63576508955465    1.71534771815587   -1.64702561451284
H          -0.44673016345736    0.93866757977673   -2.19669410925940
O           1.54051374446675    0.98964596310884    2.80064069053566
H           0.81986884914088    1.31976562631216    3.34099983427163
H           1.58037444606287    1.57742138663819    2.03755895256159
O           0.84033308722922    2.06692902904868    0.16323879409147
H           0.30620353764726    2.23711687538172   -0.64196558811902
H           1.40284409425745    1.31467300563669   -0.08460421493597
N           0.40518815767612   -1.24945932202678    1.49091652561488
H           1.26437180456254   -0.92468669542308    1.02260156717799
H           0.63091706518406   -1.74227812835240    2.34802589869649
H          -0.20213839731798   -0.37770655584950    1.68775419673763
H          -0.13416945773143   -1.83986293017929    0.79537324123071
