    26
        -50.47513847  Gyration_radius:  2.4236464438 Dipole_moment: 3.744
 S          -0.98476767230189   -1.56699160813131    0.37262672193139
O          -2.24083832212691   -1.36266428305405   -0.32167196895751
O          -0.69373603402655   -0.54862939379861    1.35936885364458
O           0.12196543922816   -1.75228718894964   -0.56166818634995
O          -1.13380986289375   -2.92687146407598    1.16050028410002
H          -1.56607928108583   -3.45633219660291    0.50054143690013
H           0.42170282453621   -0.39188960172992   -1.50941705664853
O           0.48010043922434    0.49538716362349   -1.92394966808527
H          -0.44627897931236    0.76041094390464   -2.04819296716062
O          -2.21625041150443    0.90912379304016   -1.56276920420280
H          -2.26974328656780    0.02836611266178   -1.10718341093744
H          -3.00599009712890    0.97588446541773   -2.10182693936554
O          -1.42046830871780    1.98798054343996    0.84120097467850
H          -1.85799410518115    1.82682722305625   -0.01167366608174
H          -1.30676455149158    1.09774776226313    1.22707417504052
O           1.84276393245366    0.17709262605437    1.88698285693725
H           2.32977919893267   -0.53372027179019    1.42434197017035
H           0.92420469211601   -0.15146617806654    1.93416528698264
O           2.64712325379163   -1.79583071103600    0.24049692137879
H           1.71176298399090   -1.88916233187968   -0.03869996659784
H           3.15650131228042   -1.71292562711834   -0.56723861115214
N           1.12688086469398    1.99724406328933    0.15446272019319
H           1.67586442019087    2.84042182355603    0.03846057971468
H           1.01511689851158    1.45896500088861   -0.75172324637173
H           1.55026998760196    1.33278747957720    0.88233980881825
H           0.13868465478456    2.20053187546565    0.48345229141913
