    26
        -50.47105631  Gyration_radius:  2.45217933167 Dipole_moment: 2.628
 S          -1.45882662027187   -1.17835352870298    0.85709793826341
O          -1.63154996181974   -0.43318896485087   -0.37683469510112
O          -1.06754570235351   -0.30312017163176    1.95672348004343
O          -0.57841849088073   -2.32096235763566    0.71846714357839
O          -2.88474598226135   -1.76547919869434    1.21939784035372
H          -2.68247639152713   -2.53128730694197    1.74771999023289
H           0.65592706795301   -2.12162160258353   -1.34113332288890
O           2.11282761501548    0.30363766072378    0.00021298802983
H           2.15801599431806   -0.29714344932072    0.77622454860434
O          -1.30268783981752    2.09590522887826   -1.32913387210402
H          -0.62808421184061    1.93438053705193   -2.02069016180896
H          -1.72278815233465    1.23399069603008   -1.17439262469259
O           0.82860614792469    1.28714704773092   -2.81060501652260
H           0.71155435209354    0.33248330971156   -2.70406614837243
H           1.67031730494585    1.49685315688919   -2.39895663558519
O           1.53731181573973   -1.35812031395880    2.01364040018448
H           1.03497308814113   -0.87902829528933    2.67835800358973
H           0.85689212253711   -1.86677837736260    1.52891415807178
O           0.54178298895608   -1.20837852974580   -1.61744905449067
H          -0.32331972478864   -0.94528224066853   -1.22996108631805
H           1.66569350102148   -0.23675489680213   -0.68385825820713
N           0.10730066198644    1.78076027725816    0.85460847284086
H           1.00098789435155    1.31254917383158    0.50803002325082
H          -0.47710595123103    2.05896152807834    0.00117403918396
H          -0.42849319814927    1.03445146328210    1.37254088903969
H           0.30385167228485    2.57437915473211    1.45397097082301
