    26
        -50.46980446  Gyration_radius:  2.40735124691 Dipole_moment: 3.186
 S           0.21123539162093   -1.10393921862513   -0.87935919269098
O          -0.61893883903295   -1.72938503978698    0.14408533828792
O           1.49798014081105   -0.69061925376381   -0.34182370036844
O          -0.46453752450918    0.03488344329579   -1.49627893521526
O           0.45105177794602   -2.18363751432953   -1.97531209046210
H           0.96935718010171   -1.69296074435315   -2.64450220246070
H          -1.24533750857311    1.03973979128816   -0.40522193877392
O          -1.68095299775005    1.44825752303976    0.37644366088036
H          -2.51436988784737    0.95011332634514    0.43912080218006
O          -3.16075594834701   -0.82761577211154    0.36882571431252
H          -3.72022192282082   -1.14992418291622   -0.33893445236913
H          -2.29547890439161   -1.26490930106920    0.24852315339376
O           1.61460243572311   -0.14248038423245   -3.17482816292747
H           0.81205345906084    0.25159958953118   -2.79463060634333
H           2.33469223416594    0.09656092476550   -2.58432771096135
O           2.17974868506824    0.45377639848201    2.04840698277719
H           2.26770491862861   -0.17973192605295    1.31611189202597
H           2.18485867549712    1.31583577294494    1.59929652720248
O           1.36137552835539    2.02624255391746   -0.02458134581660
H           1.35588314809910    1.09935691577511   -0.31901966783295
H           0.47179308760710    2.36097027154621   -0.15834574361842
N          -0.40604097211223   -0.01920659843733    2.15550732954652
H          -0.86834022776947   -0.18844721002674    3.04270323839403
H          -0.90270829693867    0.73910976164111    1.59401857960334
H           0.62883262280902    0.21707050233129    2.27307024502571
H          -0.46348628539629   -0.86065961920144    1.53105229620879
