    26
        -50.46543359  Gyration_radius:  2.5550614992 Dipole_moment: 2.825
 S          -0.87661805817388   -2.01821594788661   -0.52613179064780
O          -1.51152175423834   -0.81956066854874   -0.01747787132486
O           0.29002026267467   -2.40286328869237    0.25805469376269
O          -0.56375816682580   -1.94219901870947   -1.94215008583726
O          -1.93491839594149   -3.18129105476965   -0.35211452390747
H          -1.46260323168188   -3.93542167501091   -0.68933567708378
H           0.42734588424599   -0.74112544376940   -2.24314329810777
O           1.05495767913075    0.02622121883710   -2.33960327172646
H           1.39548986422089   -0.01981928619206   -3.23434387669023
O          -1.08651294030507    1.51161257824417   -1.30971961524218
H          -1.39273381186412    0.71014557057214   -0.84700731664541
H          -0.34780235605616    1.21147354802907   -1.85731229953911
O          -0.04968662904137    3.16332072677915    0.48651993046198
H          -0.75429476910683    3.73042172770021    0.80089760271664
H          -0.44874561818558    2.59517049103487   -0.21793268743218
O          -1.12723859858588   -0.10132399490418    2.50168143718018
H          -1.97570343390409    0.24307958469298    2.78422149364795
H          -1.26498995787926   -0.44593880202702    1.59373395397304
O           1.09858330133848    1.31726045491601    2.02595620282117
H           0.73783493472875    2.08428621640734    1.52539918351408
H           0.31635232805357    0.83073316193171    2.36343879430965
N           1.91590651565162   -0.35934259019324    0.24128614582111
H           1.76179703348923   -0.00465178842947   -0.71686509934906
H           1.30029018932391   -1.21808457155690    0.34360059637743
H           2.88925082176489   -0.61177907250586    0.37586338025109
H           1.60929890716658    0.37789189405237    0.99248397870036
