    26
        -50.47468846  Gyration_radius:  2.41763415369 Dipole_moment: 2.068
 S          -1.08356197552010   -0.59006648758925   -1.20388330687850
O          -2.04854433700140    0.46127502227092   -1.35595763903527
O          -1.11375041654293   -1.18443523650858    0.13539618955394
O           0.28174720065166   -0.14726693442840   -1.52514460606491
O          -1.42521039144706   -1.73451493301440   -2.21324646463214
H          -0.67218979111213   -2.34053790500132   -2.11778175366858
H           0.78901806746019    1.22252657038584   -0.83094297545466
O           1.08287171606099    2.04859050255678   -0.37277745759871
H           1.67055197136137    2.49691741153203   -0.98267013749602
O           1.12924674679443   -2.56574760768177   -1.86062346404894
H           1.01352061662178   -1.59676928236860   -1.73063619758559
H           1.61746518054260   -2.67840541121398   -2.67857212650227
O          -1.57043873450485    2.53479271234189    0.25466785601255
H          -0.64018058661127    2.67768904393067    0.01349706549959
H          -1.90811572758173    1.90510161811855   -0.41591051349349
O           1.36587627784971   -1.74646149382286    0.97481838506962
H           1.76576018615579   -2.26969621096497    0.27548106386623
H           0.43438412568146   -1.63476521181064    0.70261398818237
O           1.51318289576172    0.74177671063935    2.02612950978992
H           1.66385516135383   -0.17716755972363    1.72637864044862
H           1.57031030699585    1.29336735623178    1.22709503711429
N          -1.10616808948828    0.65726468940786    2.02566993342873
H          -0.05292294162848    0.72165973070384    2.20895981217122
H          -1.23689072217277   -0.15453629664235    1.37007832983826
H          -1.64245465987933    0.54109486736007    2.87745298579495
H          -1.39736207980814    1.51831434529331    1.46990784569004
