    26
        -50.47074727  Gyration_radius:  2.49918275121 Dipole_moment: 1.687
 S          -1.09729765838161   -1.62521645368669    0.23017308175152
O          -1.62146678274125   -0.57700210129848    1.10413798903967
O           0.13760256950421   -2.19260224203569    0.71752758974183
O          -1.02343726570691   -1.17429892254026   -1.14929217351509
O          -2.16167854147056   -2.79635061447216    0.26029741706740
H          -2.94480389612944   -2.38192327382425   -0.08717662565773
H           0.40335886058331   -0.45928339974602   -1.68297214575128
O           1.29343110206773   -0.05826678104113   -1.78315186019196
H           1.90515563621398   -0.75524626996137   -1.46819724319636
O          -2.34155118259121    1.18328937222449   -0.71892892700653
H          -2.19201381240006    0.61686831628398    0.06629309442176
H          -1.98845715102452    0.65152954428002   -1.44168089728823
O          -0.79764609446605    3.21863273535606   -0.07209012752226
H          -1.42709818809947    2.53012354892372   -0.41097652482561
H          -1.20229623713033    3.56856678306252    0.72332101025805
O           0.68264824946406    0.05871187668509    2.18292921872017
H          -0.25905300089147   -0.08725161493276    1.94714340186589
H           1.07251352229978   -0.81491735004868    2.06409746065792
O           2.49724899337061   -2.06565449058909   -0.47535714309147
H           1.64839844062463   -2.17485224171019    0.00580265798936
H           2.68743641205116   -2.91831021410334   -0.86914361590748
N           1.36272110065009    1.66664087015841    0.17661580097411
H           1.17528165220265    1.06660909969442    1.02798693604370
H           0.57339116795555    2.35584280335163    0.07452340962421
H           2.25136653954272    2.14751776087210    0.26072417228739
H           1.36624556446804    1.01684323909486   -0.68260592643318
