    26
        -50.47265417  Gyration_radius:  2.37201312016 Dipole_moment: 5.384
 S          -0.14821570390045    1.81762482895297   -0.55658436625546
O           0.98102898642694    1.06956982675356   -1.09970346690028
O           0.21568876248721    2.89111768583635    0.30726005438415
O          -1.08661550892002    0.87061736527997    0.09765098055522
O          -0.93851775054083    2.40402924321547   -1.78370480926554
H          -1.25547727132236    1.63163124874003   -2.26914919273090
H          -0.28711443421092    1.23369410036482    1.64169291162976
O           0.23328814035701    1.17089652602038    2.46186837589391
H           0.48402426615539    2.08019022225046    2.64440531900271
O           2.26314023858252    0.08765464866183    1.01110163635226
H           1.69656529261087    0.47241384444833    1.70897123898058
H           1.99838261869675    0.55862685990110    0.19356096908625
O          -1.17675567098167   -1.29368149777487    1.71153718191029
H          -0.89443529507099   -0.87473757030970    2.53102798033279
H          -1.31194881306191   -0.54709095404268    1.09759638755651
O          -1.97954056741446   -0.13741919974870   -2.10094044343990
H          -1.72963644789263    0.14729129770083   -1.18863625657875
H          -2.93450569556427   -0.22281541912171   -2.11134457934580
O           0.51642802341961   -1.33337351240351   -2.07619821051003
H          -0.41507418513007   -1.22341937908865   -2.31193993486544
H           0.81407302599455   -0.42207522736627   -1.85268100233112
N           0.99621394646015   -2.11362489958180    0.39511527707196
H           1.64391748649900   -1.30825034821186    0.68758788027058
H           0.78681091858160   -1.95253410396119   -0.63573527462919
H           1.41970058307706   -3.02032148982136    0.55368871902695
H           0.10857502276871   -1.98601410710599    0.94355263431821
