    26
        -50.46049861  Gyration_radius:  2.75144135314 Dipole_moment: 3.283
 S           1.14906991394994   -0.67749631374127    1.69501177108217
O           0.11584651767508    0.10448766488515    2.35450020887630
O           1.95837902585274    0.12693584337761    0.79718165609773
O           0.57700949391881   -1.83263677825975    0.98239129162444
O           2.07169957307510   -1.24667195226517    2.82023985126377
H           2.62379080208588   -1.90224076509189    2.35083487352929
H          -0.51157096388414   -1.52429471072767   -0.14708141247530
O          -1.25856210452892   -1.26960003544871   -0.75317726984174
H          -1.92861113774062   -1.94542233050709   -0.63881925791317
O           1.08255307682874    1.76683498007030   -0.97901026037123
H           1.48860716402309    1.09099148846707   -0.36903966688898
H           1.68071279519771    2.51530738090077   -0.96762609577390
O          -0.99661991006408    0.84308042480297   -2.64775692362225
H          -0.14432881775680    1.18253803637951   -2.34032992450176
H          -1.06354247622810   -0.04837124061323   -2.28166052604415
O          -2.87099435818280    2.33590241233966   -1.32959589856444
H          -2.25935871872216    1.83914825929315   -1.91315175790710
H          -3.47277028667915    2.80168136828544   -1.90976435124486
O           2.84760617847705   -3.14531256671596    1.13636477964280
H           1.98835826468946   -2.78405195247507    0.83684118662717
H           2.67803361850410   -4.04289394477169    1.43125759212434
N          -1.17382610131183    1.18541773397070    0.39361043025445
H          -1.41806337544238    0.30264794415936   -0.10544053918100
H          -0.40084445930661    1.62963865143403   -0.14712988958014
H          -1.98641098448165    1.80412976584795    0.40023714695083
H          -0.77616272992744    0.89025061621216    1.33111300590584
