    26
        -50.45869316  Gyration_radius:  2.49226769157 Dipole_moment: 4.319
 S          -0.81606982157386   -1.83707937957360   -0.19316749857922
O          -1.33517296757397   -0.70733028531661   -0.96055878795418
O          -1.11933653135017   -1.71827032817152    1.20780763180436
O           0.60056765189074   -2.04144376177412   -0.48171438943149
O          -1.56475415071582   -3.12663370830657   -0.72764507157552
H          -1.38685184401918   -3.13481673729129   -1.66357516370269
H           1.32546594466684   -0.64349061170682   -0.80606524759369
O           1.84086549638191    0.19429672378619   -0.94203887119287
H           2.53282390221947   -0.02912095788984   -1.56678956132915
O          -2.33054628746135    1.86026913537254   -1.61862172124356
H          -1.49402150925778    2.24958393072899   -1.89089581970978
H          -2.18241385550814    0.90688969951290   -1.60853375250591
O           0.44803575228572    2.54203973250016   -1.11255327958740
H           1.11355037034031    3.21551244329373   -0.96529932173852
H           0.92094889833268    1.68795730073123   -1.16156272125187
O           1.44689295820558    0.62511944191209    1.78084331124550
H           1.46555053482188   -0.30847033599815    2.10891013847501
H           1.86892215687933    0.58750421390706    0.90932691194222
O           1.31919202943102   -1.98958425684422    2.17766173580947
H           0.34521714425394   -2.00234662718170    2.12986653462428
H           1.57694288351801   -2.28274404482163    1.29470821717909
N          -0.93084989902615    1.20195859245437    0.83980394800656
H          -0.02440270008583    0.95805702788267    1.36197768639347
H          -1.19118686646585    0.39082720761041    0.22100123172440
H          -1.69768605687178    1.41173634254277    1.47015487088982
H          -0.73168323331494    1.98957921264243    0.19695895930196
