    26
        -50.46686417  Gyration_radius:  2.56807568017 Dipole_moment: 4.813
 S          -1.12359025317257   -0.17981002330665    0.08485030154339
O          -1.19585133890893    1.23942242443884    0.39507772766177
O          -0.67272248461173   -0.95008150314020    1.24626929191824
O          -0.25540672225514   -0.40892531129990   -1.07081663994256
O          -2.53975684419998   -0.71030710998511   -0.24305309364006
H          -2.95748298967139   -0.13858437296737   -0.94548558361934
H           0.97283263566444    0.68088167792510   -0.84230071766181
O           1.57562089039872    1.38938945458921   -0.51424812741065
H           1.09012888263709    2.21092317010201   -0.63056950787689
O          -1.12746555457532    2.06917208584442   -2.08242730085293
H          -1.14173837017209    1.91461900350245   -1.11001130779507
H          -0.63218500045528    1.32415553981147   -2.43944194539505
O          -3.53527655334881    0.96200649240236   -1.97847963543091
H          -4.11183010557552    1.56202559134920   -1.50064997814221
H          -2.71873244065849    1.47432124263684   -2.19440408616587
O           1.01399606644366   -2.62309131913977    0.03136229305183
H           0.93189347751457   -2.16626103956893   -0.81352932679069
H           0.30174591304154   -2.22378626365225    0.56661406426804
O           3.01951111074977   -1.89947040757353    1.58756678934891
H           3.09933670481068   -2.59252732326669    2.24479355159256
H           2.37745748865462   -2.24186315069896    0.91207828631039
N           1.53808785754421    0.27986870048021    1.88970341685062
H           2.24526961049470   -0.50557881461338    1.89231084119166
H           0.58270141358738   -0.17175266955263    1.78217558671779
H           1.58857833349716    0.85413137055366    2.72371020140100
H           1.67487827219523    0.85112255492337    1.00890487883375
