    26
        -50.46705830  Gyration_radius:  2.42593094273 Dipole_moment: 6.522
 S          -1.24969604090458   -1.24779037867538   -0.37848121410478
O          -0.41266885306103   -1.45322592441997    0.78099303220650
O          -0.72247098640468   -1.87988082311504   -1.58039777614481
O          -1.54708162358497    0.15852287610544   -0.62382737724477
O          -2.62504535822119   -1.94945716761843   -0.06275960680705
H          -3.11133860074083   -1.82581531694650   -0.87075929049118
H          -0.48280823737782    1.11207212445745   -1.42686502379181
O           0.21564560552809    1.62705289215157   -1.90070589530730
H          -0.23865259553779    2.34836631206718   -2.33846966989338
O          -1.08375104770896    1.72387293623413    1.57580377780101
H          -1.17942096907397    1.10675473983782    2.32205769785470
H          -1.39026121305120    1.22567306479006    0.80078744105863
O           1.41281234004173    1.92917987081377    0.67000831560545
H           0.55012558044849    1.95027081771531    1.14803511968183
H           1.17504700072035    2.07204940766879   -0.25548728435471
O          -1.14130211786483   -0.49751637712846    3.18583466563644
H          -0.39740261086576   -0.68119791085010    3.76224852592890
H          -0.95657633317903   -0.95909245091419    2.34645602687990
O           2.12065577684128   -0.58885342765565    0.59904372914779
H           1.27833873129712   -1.00627898748035    0.86052108692541
H           1.98010941738548    0.38664284570585    0.75336047838045
N           1.58519851396023   -0.71503466408191   -1.90586469476437
H           2.26019083957929   -1.09970484390293   -2.55720151531641
H           0.69467995356162   -1.29107709720354   -1.87160672383858
H           1.96003760915610   -0.68985155627289   -0.87046393453782
H           1.30563520898664    0.24431904870238   -2.16225988048012
