    26
        -50.47318305  Gyration_radius:  2.44985548744 Dipole_moment: 4.450
 S          -0.46645203212992   -1.26553628899097    0.36255706960530
O          -1.14723320244457   -0.36636088562250    1.26360069515115
O           0.97835290179149   -1.31601519514327    0.63650941396873
O          -0.69273353548945   -0.92864975321426   -1.03939326374297
O          -1.03883763809289   -2.69383497427278    0.61165578375788
H          -0.43083136141326   -3.27414456326723    0.11499116088490
H           0.60716804438878   -0.02347697660607   -1.45523027290325
O           1.42035227338598    0.53458359672006   -1.49654384635342
H           2.09610630902707   -0.01307191191666   -1.08784126941292
O           1.18067781856494   -3.69044728582410   -0.44173468766678
H           1.66937013812513   -4.29686576697281    0.11918417716504
H           1.35515765819923   -2.78934025699200   -0.10031506645354
O          -1.85389846286496    2.05167841047213    0.37430663364148
H          -2.16712415308567    1.84062203099007   -0.52852593834069
H          -1.78736497552503    1.17788299650137    0.81156826470840
O           1.15619183614256    0.68090550176765    2.35013306555508
H           0.26873559911759    0.59126541430992    2.71477835753512
H           1.24088139067598   -0.11311944949096    1.77752466198104
O          -2.26454972696365    0.97262880445191   -2.05146016915551
H          -1.79932168311355    0.18058822976246   -1.71366061218154
H          -1.86441610951445    1.17031922139598   -2.89979952420120
N           0.72563262360319    2.34751799706737    0.33000760021743
H           1.05306831863629    1.75957935519385   -0.48180602601189
H           0.99474473609132    1.82110624936141    1.20872872001213
H           1.12194434299646    3.28002218156471    0.30810227968257
H          -0.35562111010822    2.36216331876033    0.31266278254595
