    26
        -50.46700944  Gyration_radius:  2.53093578709 Dipole_moment: 4.338
 S          -0.48058881891809    0.77576994806887    1.53842395141293
O           0.21868971414021   -0.12713896732990    2.43403293112300
O          -1.18790946578155    0.05536001581773    0.48944767267290
O           0.43290999240898    1.76437011806038    0.94823609705686
O          -1.52147425006523    1.55676798274443    2.39507107269494
H          -1.81673038413321    2.27893886686600    1.80350826636231
H           1.56943750773417    0.97104068192501    0.13811848279328
O           2.21077909112549    0.42786107769775   -0.39104362940170
H           3.03797878472442    0.91194979928033   -0.38184847890053
O          -0.57073905481053   -1.99285623090663   -2.81994607370424
H          -0.39763795091209   -1.03946253875156   -2.61933595470628
H          -1.35172468363146   -2.00829067517968   -3.37460707218491
O          -0.18033184011841    0.48407422092580   -1.96337948227469
H          -0.65874597392690    0.43401425350335   -1.11191907045665
H           0.75089981747116    0.56225541786566   -1.72396218787263
O          -1.55494811993265    3.44053729930926    0.54554489837818
H          -0.71176291523742    2.95505529141748    0.44849956704704
H          -1.32849758318335    4.33516300825200    0.80925017905986
O          -0.90311080557296   -2.52551747027149   -0.23173205560648
H          -0.81607926702798   -2.46589519982123   -1.21298404342358
H          -1.26746169345556   -1.66363477814001    0.04899000058124
N           1.33872892124347   -1.85156187538148    0.84439947447080
H           1.83501866943316   -1.19659795310780    0.21605890456555
H           0.93136507491131   -1.24430643966009    1.61762219818117
H           0.46518699686458   -2.27112762579418    0.34263424552960
H           1.95674825658799   -2.56676821733627    1.21092009657328
