    26
        -50.46861493  Gyration_radius:  2.46026920266 Dipole_moment: 2.071
 S          -1.39592660265881   -1.72782521549901    0.00534134481522
O          -1.91512732503451   -1.59985860851625   -1.32139693899105
O          -1.70063790988280   -0.57579352399423    0.85747614998358
O           0.04461061387995   -2.00501106704082    0.02569961373484
O          -2.09566450249136   -2.96611269095397    0.70120869072325
H          -1.93972424292526   -2.83862258350111    1.63293289388677
H           0.43322741858560   -1.19145604489849   -1.37087982811987
O           0.52398820745486   -0.59577678776356   -2.14908365463378
H           0.08599915283429   -1.06560764755005   -2.86294517164082
O          -0.02531765734441    1.10718251700035    2.25521441159766
H          -0.73299833610810    0.54300406012373    1.90336345950682
H           0.77560377687126    0.56719838321364    2.19608449073023
O           0.37464347484290    2.77646727755227    0.21500728161695
H           1.21422829584405    2.37883704997376   -0.10922822802118
H           0.23599366621170    2.37000350621056    1.10318705944637
O           2.27837223583044    1.10301522354888   -0.63825982298093
H           2.28244459389709    0.50124354886428    0.12652093542485
H           1.90738345229231    0.59167924279940   -1.36641454965780
O           1.88682036210968   -0.73528138818328    1.39571559083977
H           2.56182657673411   -1.36986937982663    1.63986772324451
H           1.18884619076777   -1.24046264172392    0.91646569862105
N          -1.21839145871063    1.20862686609114   -1.05096855108151
H          -1.97992585016775    1.58910500040851   -1.60183025533831
H          -1.58839433232264    0.58256122299893   -0.29763959192095
H          -0.59910213827855    0.60725812417545   -1.63690324449874
H          -0.60277768228776    1.98549554618366   -0.56853549709897
