    26
        -50.46725461  Gyration_radius:  2.50437994941 Dipole_moment: 3.524
 S           0.24011929982786    1.38261983084715    0.21922861126778
O          -0.96872782307158    1.60281432071399   -0.59749395081217
O           1.31856688690593    0.85127952537717   -0.57555397268440
O          -0.07921895129224    0.53295075154764    1.36186385042732
O           0.68974151562238    2.77173643579252    0.76679616797898
H          -0.13665291509216    3.13436015672484    1.14229086029873
H           0.73121564206559   -0.86203452685979    1.88318847248726
O           1.07055542235957   -1.76108984511298    2.08523646670601
H           1.55476021184916   -1.68619952305771    2.90839227989079
O           2.47165250971330   -1.58301742907567   -0.28075175535475
H           2.05128579684819   -1.90904997988860    0.53121421809616
H           2.28688290678326   -0.62702369596260   -0.28336757905947
O          -1.52950731754524   -1.66529031093728    0.89232327120821
H          -1.21053055436055   -0.78598520973399    1.18446312338776
H          -0.88134226603364   -2.27920225175935    1.25702732770910
O           1.16993496570632   -1.26865176816933   -2.55345349326231
H           1.47176909225085   -0.35452937070876   -2.59402878738101
H           1.68380914219828   -1.63696567705918   -1.79297402594427
O          -1.86145947690826    3.34741527239554    1.14503104565262
H          -2.19353730852098    4.13567330143712    0.70943165733103
H          -1.80111166351644    2.65212842547418    0.45910405707407
N          -1.23118266810686   -0.81223811140205   -1.59353978759315
H          -1.18139615004662    0.20576447871132   -1.31115697031437
H          -0.28250646257462   -1.07698164774538   -2.01729491400915
H          -1.39782249457894   -1.33844029393832   -0.69212317384617
H          -1.98529736049785   -0.97004283759979   -2.25385299926882
