    26
        -50.46999618  Gyration_radius:  2.51771530824 Dipole_moment: 1.008
 S          -1.07669082438250   -1.47537526474319   -0.45760476809933
O          -1.87706555108259   -0.37007886513601    0.06508330088786
O          -0.13381758178415   -1.96809321083583    0.52478558082766
O          -0.46853259322272   -1.12828245278080   -1.72650000845446
O          -2.07520619644661   -2.66689104875914   -0.74275123219255
H          -2.59355857052902   -2.34665162994504   -1.47434098718937
H           0.94142318843177   -0.21318200398539   -1.49327288240665
O           1.66122462920601    0.30705768766213   -1.08061216735393
H           2.23891787410170   -0.35719143039804   -0.66467704579274
O          -1.59002956494347    1.63597859341711   -1.70310382749947
H          -0.93303308018523    1.25648333353199   -2.29229063391469
H          -1.84392030850733    0.90926257897107   -1.10369758504676
O          -0.86241677304604    3.48358753654296    0.14391239390713
H          -1.12129998792726    2.94589825481686   -0.63580094194838
H          -1.64506086043196    3.97152572959194    0.40206263271647
O           1.11729000813315   -0.70456319019056    2.64781856499947
H           2.00421970817420   -0.95277718053362    2.36766784472511
H           0.52842440748030   -1.28962566040526    2.14316336863755
O           2.51504046169544   -1.89488234916099    0.29226034788052
H           1.54523414640592   -2.03062376828543    0.35391509552422
H           2.86857733657974   -2.67059403096222   -0.14458883360855
N           0.16473155589350    1.13314389352262    0.94095572946591
H           0.83964130374761    0.94640350966814    0.14164091437637
H          -0.07772872414507    2.14113589513004    0.95242916381014
H          -0.70132466032337    0.59047039727560    0.72992043948582
H           0.57496067708589    0.74786469597107    1.81362552628346
