    26
        -50.46537026  Gyration_radius:  2.50497386341 Dipole_moment: 5.411
 S          -1.68728421190732   -0.23370167854171   -1.26385024981289
O          -0.57036514195671    0.66697259281811   -1.43671946608588
O          -2.66968122969815    0.25730464093277   -0.30582918103411
O          -1.28050114919357   -1.59790901970014   -0.94540810214982
O          -2.42373250333385   -0.30317817819632   -2.66219344254461
H          -3.22031277833885   -0.79153095236064   -2.47778755181176
H          -0.65821597513597   -1.63654683664808    0.53155506332906
O          -0.27502522987541   -1.59950071827939    1.44732295906448
H          -0.45878484509655   -2.45136802686305    1.84702731334646
O           1.19778694422304   -1.24577853131159   -2.04975394402726
H           0.75418791280866   -0.38204313262793   -2.01363439627100
H           0.48012994540792   -1.86405974007646   -1.86550042898518
O           0.39954468411733    2.44910520446490    0.33969240002420
H           1.32888133996139    2.15651022829243    0.51627475195840
H           0.12840161722621    1.99511956437221   -0.47897015766565
O           2.30819480447686   -1.14522269758210    0.41393223753946
H           2.06874633783239   -1.22433430295137   -0.53447247895359
H           1.49766629842873   -1.35413979762461    0.89956327196146
O           2.79449568819519    1.42280726192883    0.78275899655677
H           2.66331990306582    0.44355783640837    0.69844869757320
H           3.49552203486022    1.64645999818085    0.16950337762212
N          -1.18056176018681    0.96277685326676    1.71559206044637
H          -0.71148626005855    0.06063568753504    1.89972811295082
H          -1.90440111169789    0.76052131426336    0.96725070950234
H          -1.60205843346388    1.34504399681456    2.55485559040736
H          -0.47446689062434    1.66249845347601    1.25061385702363
