    26
        -50.46637102  Gyration_radius:  2.58536010716 Dipole_moment: 2.446
 S          -1.11197789226505    0.32161755762948   -1.85345401942510
O          -0.46197586215092    1.60905234837341   -1.86345986662922
O          -1.93803725525212    0.09465085185415   -0.67790201168832
O          -0.16998826413311   -0.77874359583632   -2.05428668491478
O          -2.10438918149097    0.30010319725919   -3.09024667885078
H          -2.68856595676387   -0.42827457837104   -2.89954265568650
H          -0.22984106331693   -1.93820008838307   -0.84310331981849
O          -0.14746926814546   -2.61704044599490   -0.13982644753431
H          -0.04918428220222   -3.45588880982078   -0.59305777832276
O           1.99902029492804   -1.74262152069625    1.26203553187716
H           1.24787673364583   -2.15754455862182    0.78943570266259
H           2.33443862094633   -1.07153632432710    0.65766726237062
O           0.50712641151039   -0.74424715431235    3.21210522208346
H          -0.08574984533835   -1.45804692339559    3.45236637450117
H           1.19528827341118   -1.15062182468591    2.62839598171414
O           1.81017393992772    0.33939883231097   -0.72651554604316
H           1.18828075365486   -0.14487438493120   -1.31429305450234
H           1.94393473527922    1.18707741001633   -1.15817582416595
O          -0.60358406086799    3.28071230146874    0.21343007096492
H          -0.53606617619932    2.77069270785677   -0.62197572912318
H          -1.38449883327809    3.82838345213492    0.12640998698634
N          -0.14727422616084    0.79205026459812    1.12728898866694
H           0.70459516727551    0.63674379505628    0.54427762709264
H          -0.95352121453921    0.40765863542961    0.57635201501258
H          -0.02240237015788    0.30697171326752    2.04959034089900
H          -0.29620917832112    1.81252712213512    1.19648451187160
