    26
        -50.46431759  Gyration_radius:  2.42189714565 Dipole_moment: 5.085
 S          -0.02790253968648    1.36405219075372   -0.32885839501448
O           0.90892327297142    1.60718745675847    0.73388293848589
O          -1.33426799636771    0.93628323447196    0.16537012743245
O           0.47084900031068    0.36520889311943   -1.29660700215232
O          -0.22424852616842    2.69578348488707   -1.11030916429248
H          -0.72334936437025    2.43284765150267   -1.90694593627551
H          -0.25472452995665   -1.16997309845334   -1.18525104422974
O          -0.64535391299627   -2.06246447550798   -1.06408665766733
H          -1.42587188603521   -2.08246995672802   -1.62004409903452
O           1.71862263923696   -0.65026699910956    1.89817300974274
H           2.17060784390675   -1.06064480269057    1.13158878995245
H           1.59528597948624    0.28213622993131    1.62952043925819
O          -1.01164372636553    1.31575817404959   -3.23814434189515
H          -0.42763826791588    0.77023492066750   -2.67407642404299
H          -0.51373402336572    1.52758686475522   -4.03087470644543
O          -1.04899059248613    1.28173818841230    2.89366822135194
H          -1.33583637764497    1.42454185598449    1.98212971621782
H          -0.16189470545220    1.64678269399927    2.93326427516852
O           2.34708414630001   -1.47651682423311   -0.58032699861997
H           1.85521686795252   -0.70792426404116   -0.91879579058939
H           1.85395306377694   -2.24761936084861   -0.87219114687552
N          -0.77459937264227   -1.26786893695840    1.51078946346138
H          -0.81214733968314   -1.96288908423234    0.74729240630792
H          -1.34174787984773   -1.50824418053336    2.31746176595738
H           0.25715406237170   -1.09099157032518    1.79678167833215
H          -1.11374584533116   -0.36226832562766    1.08658886546096
