    26
        -50.47124177  Gyration_radius:  2.45361330931 Dipole_moment: 7.127
 S          -0.45421375633803   -1.48688062211967   -0.46863155484304
O          -1.46918828948881   -0.59004738518648    0.06432148096516
O           0.25896547399833   -2.21034350383298    0.56450709275427
O           0.47341156421068   -0.76324277324761   -1.34302070139352
O          -1.22162895123399   -2.51579479091547   -1.36197221548780
H          -0.49624137494424   -3.08274020629791   -1.68419944807295
H           1.28662875208200    0.44242685408838   -0.76611249755505
O           1.81148714499227    1.20448011871046   -0.38586602440352
H           2.44788429422956    1.44055196154393   -1.06277287127690
O          -2.09603594630300    1.59369507589078   -1.21968638718395
H          -1.85614023875182    0.70002473584290   -0.87023735668734
H          -3.05173525624589    1.64424996538360   -1.16008211133084
O          -0.92807690682058    0.78755561858762    2.29727296765632
H          -0.03893886477449    0.39214117412715    2.46722360621163
H          -1.32374236684316    0.17946948772213    1.64165696903805
O           1.45519130188622   -0.32143194995170    2.03382160107475
H           1.09045381565113   -1.11909863709417    1.60047558497235
H           1.86912935202020    0.19273886385959    1.33025346960874
O           1.27486612530414   -3.33245028575363   -1.68209541679257
H           1.37628298174368   -2.39327338645485   -1.89196426431516
H           1.28368569505780   -3.36642360788699   -0.71554098480733
N          -0.33273314715531    2.56253351477202    0.52258089908868
H           0.57500538087240    2.19788003015753    0.15754707919654
H          -0.59945399145237    1.92054015491740    1.36678632450335
H          -0.27343392053957    3.54121927622668    0.77802788689038
H          -1.06142888132513    2.38222030704506   -0.21229310815210
