    26
        -50.47074693  Gyration_radius:  2.49950101898 Dipole_moment: 1.694
 S          -1.53330912110741   -0.64655188178509   -1.06486628316714
O          -0.88001061689253    0.06525751022030   -2.13761913987103
O          -1.92116149538005    0.20674711251558    0.04567819732793
O          -0.76567909899744   -1.80201885880736   -0.60376585042860
O          -2.87589212273301   -1.22358522550717   -1.67293365132934
H          -3.28162413312028   -1.65183804294072   -0.92620601669395
H           0.79063569936705   -1.42654006367455   -1.09596215298402
O           1.57158807226459   -0.90855927977658   -1.38849037823203
H           1.21859516124816   -0.37410542867360   -2.10888736299293
O          -0.16965172786837    2.11803209503128    0.58886761548129
H          -0.89986292677088    1.47111329434642    0.48254939552681
H          -0.05946935151115    2.50176919114020   -0.30544373133131
O           0.01627185260954    2.55400763246656   -2.05025022817514
H          -0.31778025506872    1.63725381244066   -2.16008436502238
H          -0.58776672708911    3.11376549928484   -2.54020576225787
O          -1.06786006573033   -1.50698482536970    1.99663331504134
H          -1.54774542334018   -0.67708156878409    1.89180086039963
H          -0.91696224791673   -1.79304102094591    1.07195653067572
O           1.43267648084703   -1.16751375109981    2.75516716926102
H           0.45999080104479   -1.28547002216957    2.59658915016292
H           1.81233074184154   -2.04560802400609    2.69502968401867
N           1.92712027402779    0.57431959581728    0.79063632781187
H           2.80059296896568    1.08509161587888    0.85523790613608
H           1.88745562807288    0.00381126213877   -0.09975820219739
H           1.81460894691146   -0.07808479515616    1.60922173607390
H           1.09290868620422    1.25581415725352    0.77510523691763
