    26
        -50.47031904  Gyration_radius:  2.49299601281 Dipole_moment: 3.313
 S          -1.93259199265717   -0.66959982864136   -0.10362440898448
O          -1.72670798941205   -1.38296744900843    1.15026391975032
O          -0.98165916329343   -1.02930762725702   -1.12747462671028
O          -2.02025127029642    0.77117271268646    0.11841591985102
O          -3.35450175198553   -1.11528626602149   -0.64024248075005
H          -3.92730795555033   -0.89252790138957    0.08629861552732
H          -1.57858942761042    1.42243442147529   -1.43479777574057
O          -1.09000439873164    1.40354249559474   -2.27943323942906
H          -0.99975658248849    0.45510547557690   -2.44481276737274
O           1.30309804887167    1.94552217180074   -1.32240033672532
H           0.41645238442612    1.81134744472163   -1.75590315196441
H           1.72082961763179    2.67781242014582   -1.77675653851846
O           0.20807668000214    1.78964073694858    1.17819063408614
H           0.73780614895262    1.93290836722973    0.37198235958544
H          -0.68822688634286    1.56535000026655    0.85275818787275
O           1.70702482706773   -0.79949737108352   -1.26039525121547
H           1.76498249033427    0.16858212464156   -1.29948694453653
H           0.75278302123078   -0.99837773255785   -1.27795726796259
O           2.47959408847766   -1.87331162483891    0.98505225507415
H           2.31084893679038   -1.45414772618269    0.09590814936651
H           2.37648551015574   -2.81621238104486    0.84733906954131
N           0.51618900201021   -0.59010629961429    2.23039574266959
H           1.33056994251010   -1.12361154905188    1.81879575179387
H          -0.39107729323753   -0.99455592619864    1.85840993555631
H           0.53375971104204   -0.62406632049046    3.24378078037032
H           0.53217431210219    0.42015762229167    1.88569348886379
