    26
        -50.47007414  Gyration_radius:  2.53601976591 Dipole_moment: 5.384
 S           0.95728226722030   -0.17131043821228   -0.71906272101235
O          -0.00813065131809    0.84889564913888   -0.28918125570381
O           1.54307494418751   -0.82632564873849    0.44692127205500
O           0.32676725202520   -1.11461672852625   -1.62978831815432
O           2.10995666803405    0.54719855018479   -1.46102452711886
O          -0.68244946003707   -0.06594621467230    3.62649023556410
H          -0.31587869650228   -0.10994729187234    4.51065866281145
H          -0.11136038434987    0.57117933356882    3.12053637522293
O           0.98927070296690    1.30474313117757    2.11831772010392
H           0.51919063294243    1.35239193085894    1.26195891625941
H           1.69833086415829    0.67716447039989    1.93467533665637
O          -0.93648762179978    2.10088462700537   -2.41832758581793
H          -0.65471663455299    1.66375607236492   -1.58480405402320
H          -0.76505550816669    3.03667907769425   -2.29987680464791
O          -2.00080069082398   -1.20366665838271   -0.42609125631838
H          -1.21744758806382   -1.26910888264973   -1.02037991000073
H          -2.19306691807095   -0.26216722284620   -0.38492422587013
O           0.85804250185880    0.55492874798760   -3.69939557247044
H           0.14742726278617    1.19258317555442   -3.47661111466530
H           1.78787852895003    0.64019085498204   -2.40853078612343
H           0.52159802050780   -0.30584360021511   -3.41072444682415
N          -0.52294992298811   -1.85776195618484    1.66202051527105
H          -1.26157442532192   -1.65979759406017    0.92401693931456
H           0.39102029535564   -1.53935392425237    1.21709876197026
H          -0.68602782831303   -1.25980039139670    2.51256992549453
H          -0.49389359068870   -2.84494906892528    1.89345792803726
