    26
        -50.46711605  Gyration_radius:  2.57445519159 Dipole_moment: 2.817
 S           0.63303784430106    0.91458309480569   -0.94779357716306
O           1.29847648739671    0.94949902256817    0.34928897849228
O          -0.78110046325349    1.20269249119738   -0.83428746131578
O           0.86900908253299   -0.37548677562760   -1.60699753339989
O           1.26151239108517    2.02194501629330   -1.85006480871370
H           2.15362205785742    1.68334241026745   -2.06559915741894
H           1.13646137990848   -2.04228137862444    0.24464306119639
O           0.90811822114236   -1.55768567491485    1.04222843718539
H           1.21724825631751   -0.63972037768554    0.87825568663014
O          -2.54019216426208    0.52065489517544    2.76789067248999
H          -3.12728617352653    1.25923583842394    2.59830929882791
H          -1.63490455677453    0.90636190809879    2.80912700812764
O           3.25073383263917    0.36577857372744   -2.42065789401932
H           2.47687895464753   -0.15673356850389   -2.12657512340069
H           3.38748940346451    0.15776794705311   -3.34762804617592
O          -1.30467297990144   -1.97164792651911   -1.76923053113526
H          -1.60680888668850   -1.95250292363588   -2.67791513487976
H          -0.50406572237204   -1.41031002767405   -1.74535372246066
O          -0.04851352135378    1.49181546559079    2.59487560025332
H           0.39362951637311    1.40829786684193    1.72473436675123
H           0.58751890571130    1.16610875809499    3.23475164271964
N          -1.63440875568884   -0.80528021433268    0.64318966889033
H          -2.18338354888875   -0.48740486320553    1.47437198525555
H          -2.09781076716372   -1.47756383602608    0.02849081964204
H          -1.39819575229894    0.04213362416910    0.05769293469260
H          -0.71239303120154   -1.21359936558150    0.94425284892000
