    26
        -50.45679941  Gyration_radius:  2.51481993109 Dipole_moment: 3.992
 S          -0.75841974610101   -2.08768666947726   -0.45212488518106
O          -0.88449821772480   -3.00376096227708    0.65588248099229
O          -0.80483929429427   -2.63373048169264   -1.77174881278430
O           0.79183938390395   -1.52393937904602   -0.28202748101398
O          -1.54957134952060   -0.87654728838660   -0.28124967494110
H          -0.88454195520778   -0.26388194010407   -1.65832903153627
H           1.26375161883635   -2.33056482745508   -0.09748693458271
O          -0.44548552064205    0.20197420117230   -2.40040914684310
H          -0.36209575178527   -0.47177504105430   -3.07915045710929
O          -1.84078193162241    1.79923867699410   -0.26362955573996
H          -2.17128122180687    0.88695883851639   -0.27546897980782
H          -1.48496790629157    1.94163637078891   -1.14689721360376
O           1.93273735933475    0.94715086574149   -1.33336118389113
H           2.28765913456994    0.06239784633686   -1.22307070165386
H           1.07100961302306    0.81595778659337   -1.78211688557829
O           2.31495017331373    2.28296980773306    1.00469796397146
H           2.29699160057179    1.89210081349373    0.10694217766391
H           2.47244203321226    3.22059052520806    0.89068228538439
O          -1.00242434674834   -1.25175019518795    2.62034895537230
H          -1.93814145919200   -1.18656549422469    2.81981877230466
H          -0.93746172431530   -1.95441835648619    1.93005062325029
N           0.13455327634173    0.72662511264940    1.22868377017395
H          -0.28985385710565    0.12968857639215    1.97774979001815
H           0.90921649896899    1.34519421901549    1.52417681046288
H           0.49684611048446    0.05145449755563    0.54006621830073
H          -0.61763252066139    1.28068249764843    0.74797110661489
