    26
        -50.47213294  Gyration_radius:  2.44137134121 Dipole_moment: 2.254
 S          -0.19242831536230   -1.88375801559934    0.80368307052206
O          -0.27234537680875   -2.08487718664965   -0.63671714153428
O          -1.26063103525983   -1.07846032661129    1.33518613279228
O           1.13056556805414   -1.39882615524609    1.19274750359778
O          -0.34411400617387   -3.32055102787054    1.44999780370914
H           0.27597557470806   -3.82522455614844    0.93555300247069
H           1.95477980576733   -1.03407678769665   -0.22145286349443
O           2.10050255220650   -0.92285417847409   -1.18615387715226
H           1.45163683328359   -1.53717630716527   -1.55551456558477
O          -1.52111628491390   -0.12057226895421   -1.93068168888461
H          -1.16807294770195   -0.93557882114088   -1.51238045486104
H          -2.04675926429424    0.31636010313160   -1.24098544500366
O           0.02170433861462    2.51870038967802    0.43558387239379
H           0.46976677352720    2.07420850435796    1.18610994595743
H          -0.89710208965787    2.19426297026963    0.47404695907251
O           1.14263656060497    0.99242704608313    2.32719550705410
H           2.02187542687822    1.04786111082193    2.70428946398850
H           1.05521662319000    0.08223351967551    1.97324420453302
O          -2.32112956982596    1.10250343117721    0.41562932348560
H          -3.11449785364669    1.28068290160702    0.92249648814048
H          -1.92119743043037    0.29176814148124    0.81888158396968
N           0.70564264791436    1.26717188570275   -1.75733561023254
H           1.40192135524401    0.50177183144834   -1.54530945090905
H          -0.21278422203987    0.77275908701261   -1.98109431875828
H           0.52348015446510    1.85333214361057   -0.87819936603487
H           1.01647416165806    1.84591255550713   -2.52882008923550
