    26
        -50.47007415  Gyration_radius:  2.53593583158 Dipole_moment: 5.382
 S          -0.98643778872676   -0.67406225902158   -0.18793800131394
O          -2.51701234099279   -0.61774426957312   -0.41073318319100
O          -0.40042011297243   -1.57348669940950   -1.17002104032806
O          -0.45530418412837    0.68498619557582   -0.35694718087246
O          -0.77108495084626   -1.12681382013575    1.18333304364317
O          -0.98883967659054    1.51478755182541   -2.80433023653868
H          -0.73442175177566    1.26459014365082   -1.88896593949184
H          -1.48031318458659    2.33456332336662   -2.72992152238151
O           1.92221134364603    1.19399504305716    2.91562693955369
H           1.96012329643533    1.28375331883973    3.86881884785353
H           0.99511876297588    1.43550386820099    2.65059878194577
O          -0.59386910969798    1.44832999864168    2.17230598088727
H          -0.53690070042656    1.40423862918792    1.19692176475198
H          -0.98620903915250    0.59682189039527    2.39898447048239
O           2.01051046864523   -0.54361694354093   -1.13782538904884
H           1.16991448754533   -1.02979808537446   -1.30548822347404
H           1.78966155466849    0.37915014642478   -1.29516540065582
O          -2.30017112543601   -0.83237839278747   -2.95728770579485
H          -2.63556981141780   -0.69636115574650   -1.40564020556581
H          -1.89582283876086    0.03929957345419   -3.15188838635586
H          -1.55389031901723   -1.41464439915272   -2.75355041418940
N           1.82269680600857   -1.02866834800215    1.45091946018798
H           2.29788378382722   -1.86141271031667    1.78205050691772
H           2.01859704057269   -0.19534838792284    2.06307587121572
H           2.08248104876694   -0.81566143114293    0.44266261316773
H           0.76706835139283   -1.17002277043979    1.43040456856714
