    26
        -50.46485017  Gyration_radius:  2.48548136861 Dipole_moment: 7.318
 S          -0.02271435890013   -1.14188260010061   -1.28086482541150
O          -0.61219351524902   -2.39252914222636   -0.86671239902581
O           1.12035872056760   -0.79616724421429   -0.40674735615056
O          -0.99002146351011   -0.03893970908841   -1.27063013145983
O           0.52323380388928   -1.28764155932236   -2.71329182375425
H           0.65876373922503   -0.33710468392309   -3.00282607398246
H          -1.54451274981319    0.53151814823173    0.06032570318127
O          -1.83514340952526    0.86737545040042    0.96017420000825
H          -2.77539680282824    0.68869749004859    1.01147430430730
O           0.56384816981348    1.26297028027148   -3.02481688881233
H           1.22454582281402    1.58146281696121   -2.36848529954559
H          -0.26178089033956    1.17971138829701   -2.52478783953603
O           0.28932094445604    2.64946157054861    1.20523441653430
H           0.08374581398283    3.57068026167956    1.03827532306507
H          -0.53517598556132    2.15373928558474    1.08633392783845
O           2.01131817191300    1.70093403550897   -0.81588417293165
H           1.88245898311087    0.74803889469767   -0.65990063302314
H           1.52384301490334    2.13584190486893   -0.09846273544707
O          -0.83521362345956   -3.06026250517774    1.64854406240879
H          -0.85030575635111   -2.86500506000417    0.67666413721105
H          -0.39229165948505   -3.90680052592523    1.72873823578135
N           0.16443608740153   -0.63968742573532    1.96581730012040
H           0.67849618943042   -0.66532188610119    1.01452379710084
H          -0.19253508854248   -1.61998709248933    2.09943770302327
H           0.76940583662539   -0.31718570378253    2.71308907008372
H          -0.64648997450845   -0.00191637899206    1.82477798847885
