    26
        -50.47037220  Gyration_radius:  2.48261101191 Dipole_moment: 2.686
 S          -1.05737725016611    0.79362684863004   -0.52417175654388
O          -0.93940614653313    1.11833687475872    0.88464938853668
O          -1.08591667758654   -0.65434985522529   -0.73207640820707
O          -0.03655736878767    1.42904295796697   -1.34947663856914
O          -2.44748866559333    1.34775411073259   -0.97742389140387
H          -2.41341672867691    1.30416802518973   -1.95440764403825
H           1.50923858257927    1.03963687776941   -0.91821426690948
O           2.40148899299373    0.74029481972927   -0.62886734611778
H           3.03694116350864    1.23994252195073   -1.14366159819359
O           1.51975586129047    0.71613255107699    2.00692159249915
H           0.64297757501773    1.01820717265365    1.71401025120033
H           2.07556270372435    0.77394039921924    1.21483993550318
O          -1.59042182537370    1.36818707015556   -3.47481437267396
H          -0.80223552156579    1.36125707142514   -2.89712685267636
H          -1.59131701330823    2.21379145834678   -3.92932081665409
O           1.06103201742664   -1.88771464326745    2.19542170626389
H           1.29913158547013   -2.08111909771596    1.25548542170576
H           1.36987892649694   -0.95756145210395    2.32685433270065
O           1.35955371603194   -1.83948074470452   -0.43925694002993
H           0.47813229910156   -1.52220064947193   -0.70154001455192
H           1.94915197047744   -1.08245645662155   -0.57222829380890
N          -1.38674862216179   -1.31396197775484    1.75867277679698
H          -1.41884674017571   -1.35629623883788    0.70941749766963
H          -1.42064292237742   -0.29272687290112    1.91454323371671
H          -2.14383274862448   -1.81557792943415    2.20830328264250
H          -0.36863715319151   -1.66087285155475    2.05346743113691
