    26
        -50.45879885  Gyration_radius:  2.66477167643 Dipole_moment: 4.421
 S          -1.79982837896787   -0.61512097356472   -0.72951021941876
O          -1.96495851302801    0.55660494706412    0.12844115628507
O          -1.43790979785978   -1.79375132678423    0.01657036147147
O          -0.82380905027636   -0.31979138832682   -1.79639336191987
O          -3.16731313873329   -0.88706209368589   -1.43198771884353
H          -3.27334875697698   -0.11018467943652   -2.01322308134636
H           0.67569564472983   -0.48435156115948   -1.34587590998628
O           1.62862838755850   -0.56287597204635   -1.05680294129384
H           2.10370692878418   -0.91132404534780   -1.81284502842982
O          -2.59604734258836    1.09042614668705   -3.11669129979016
H          -2.60006585002077    0.81068961410639   -4.03493913299537
H          -1.77300792510863    0.73645282029808   -2.72098312471825
O           1.93656603638397    1.67682175296088    0.41302849179778
H           1.91674014315368    0.88644716363102   -0.16608736890624
H           1.73721541960685    2.42778802004008   -0.14790900051712
O           2.48911500859566    0.10055411288790    2.93262299696303
H           2.33454977896170   -0.79671736166587    2.62156487439956
H           2.79403869186993    0.60912189953979    2.17591017705889
O           0.87289980103778   -1.79731562813094    1.28717851924938
H          -0.00067624940440   -2.05594381459521    0.92421658758602
H           1.36749822045049   -1.52061450733178    0.49746683382031
N          -0.09461613508984    0.60869415901296    1.90008634317911
H           0.65488981292446    1.21905229108758    1.51885517311053
H          -0.94020026203765    0.63842501280186    1.24033545700878
H           0.28776422267404   -0.37791054896231    1.86539348478922
H          -0.32752669667522    0.87188594092461    2.85157774146581
