    26
        -50.46347351  Gyration_radius:  2.63606959092 Dipole_moment: 7.104
 S          -0.59505788538510   -0.42142676461146   -0.20058168973915
O          -0.17433016333623   -1.61198455495511    0.54573907860547
O          -1.00836012196594    0.63846408917590    0.73587035251215
O           0.69562208611704    0.07241267839808   -0.90723577072621
O          -1.60282651338112   -0.68957186396861   -1.19588198660253
O          -1.22524990288723   -0.25389187843919   -3.79264676999420
H          -1.46112104369476   -0.49044032300248   -2.87101816389813
H          -0.77747647184905   -1.01839357578391   -4.15709189438627
O           2.46477638983873   -0.20327160564877    3.12250899934721
H           3.03128502980096   -0.72842771503013    3.68979115376018
H           2.59029482212097   -0.55880589636548    2.20347150487858
O           2.47401351092635   -1.28643160411531    0.72191702341870
H           1.53773880299284   -1.54952875682363    0.60444202108277
H           2.63005337328132   -0.66667184423385    0.00352237008691
O          -2.28778058870677    2.08022261599580   -1.11827099618004
H          -1.88584222133822    1.67041577449791   -0.33017794621286
H          -2.79014068482490    1.37243340091775   -1.53277577719782
O          -0.04960044335944    1.83119601558725   -2.55209645096082
H          -0.39876080921344    1.23504854512586   -3.24491833404407
H          -0.84986503699928    2.17311143635010   -2.09158912654028
H           0.45060787150268    0.82584673160159   -1.56892052911989
N          -0.15687498333534   -0.48367062716890    2.84526898885340
H          -0.52953899200978    0.26543988497280    2.18404343600652
H          -0.16114682470004   -1.27261397609676    2.14513884847861
H           0.84239189490530   -0.28671664222471    3.11906058687320
H          -0.76281109449414   -0.64274354414619    3.64243106170666
