    26
        -50.46344269  Gyration_radius:  2.50397369795 Dipole_moment: 6.082
 S          -1.72248221407459   -0.82922723626629    0.65321977812783
O          -1.26360699016274   -0.77755855558467   -0.71357230123433
O          -2.43195990534265    0.37625649702826    1.06497740318459
O          -0.65428532174397   -1.14650079756176    1.59735632556869
O          -2.76424619006529   -2.01113029061254    0.74401300837067
H          -3.10645402893027   -1.90382774681805    1.62502766544941
H           0.35915732012511    0.10908298172096    1.87460080745849
O           0.94052145906683    0.89754100571427    2.00028573882375
H           1.04748531616727    0.99980763061040    2.94732789072102
O          -0.42470472731373    1.43542812169025   -2.03957777013684
H          -0.85389660683211    0.58845475248030   -1.82280977435791
H           0.53011325167565    1.20422137041119   -2.16625625805569
O           1.09413062505590   -1.84232093579920   -1.60404274226437
H           0.18044839221314   -1.59540407182525   -1.38230194339476
H           1.49776022219272   -2.09722254793695   -0.75189266829059
O           2.05196034149651    0.52630290909950   -2.22505073395070
H           2.43548301776062    0.46798540489711   -3.10094147456194
H           1.77112190770193   -0.40020602463744   -1.99164291292046
O           1.85245032471283   -2.01277325419433    0.99825000364431
H           0.92910452825412   -1.88044374652178    1.27591171138277
H           2.28616183859606   -1.16512101558010    1.12861927867520
N          -0.74622578130435    2.24676529501104    0.38652582704223
H          -1.53924994020315    1.60181970333738    0.66918203581474
H          -0.98309522522413    3.22131053936723    0.53636210232415
H           0.06968202266016    1.95479835243346    0.96170939138582
H          -0.55537362646383    2.03196165957193   -0.66528037883560
