    26
        -50.46485024  Gyration_radius:  2.48550921401 Dipole_moment: 7.315
 S          -0.33374077333040   -1.33585408200198    1.02344522550327
O          -0.59746001941977   -1.23019921692475   -0.42894156902784
O          -1.55254286544551   -1.14034554036029    1.77137643991684
O           0.70977625543589   -0.37452688973865    1.39655364302128
O           0.20346971462872   -2.75415300940646    1.28988976673697
H           1.15057764591496   -2.70376720891262    0.96396491175257
H           0.58857810468474    1.12645658946260    1.02731961166732
O           0.45507920779271    2.07491509434282    0.72784656894394
H           0.37619996877154    2.59103791774898    1.53161051193182
O           1.63814436269756    1.66763508077267   -1.75883611035243
H           2.53457107806955    1.99364275200170   -1.85313734886300
H           1.35842945175010    1.87850536690777   -0.85501494311676
O          -3.36734955561727    0.59252286042455    1.04608145646952
H          -2.70941022452941   -0.04109712812750    1.43146513519644
H          -4.18001117976440    0.09100687666566    0.96053810344673
O           2.54483331027777   -2.09151747127508    0.46356429481411
H           2.41861787074771   -1.87708368126288   -0.48873292520763
H           2.30926278626717   -1.27788060916244    0.93384524357051
O           1.65769869770646   -1.14923610822181   -1.87975127814128
H           0.77503803647372   -1.30197791437544   -1.49698914320773
H           1.72207792357485   -0.18563513215698   -1.97330964330510
N          -1.55479764719413    1.11820773717562   -0.79715436161585
H          -0.85124021866657    1.71159714175796   -0.31021658434656
H          -1.71751734350826    1.43308018384962   -1.74730832539010
H          -1.15276255091486    0.11446335733620   -0.76904801596270
H          -2.42552204637656    1.07020300348529   -0.20906067446727
