    26
        -50.46935167  Gyration_radius:  2.4741117399 Dipole_moment: 4.984
 S          -0.90119211204643   -0.89201229675609   -1.03910384731265
O          -2.07367311944908   -0.10604315719217   -1.31658549899386
O          -0.65001214740365   -0.99843400651902    0.41058255511244
O           0.28890067550130   -0.40304326260652   -1.71887569778654
O          -1.16342042977638   -2.35611486438628   -1.54035268925660
H          -0.38844756532811   -2.85550622692019   -1.23959219867437
H           1.77078588728336   -0.50900308110321   -0.84350736651486
O           2.47437632546573   -0.70085934824949   -0.19366250005350
H           2.35674974052942   -1.63326813980482    0.01749424761244
O          -0.31221947789962    2.16497350649481   -1.60791398397873
H          -1.25441527558460    2.10941898449017   -1.79383080944912
H           0.04173139957088    1.28737687774627   -1.85872167953122
O          -2.80441283546450    1.54977447093773    0.69004960988154
H          -2.58873242390792    0.92118272439869   -0.02641863737960
H          -3.75966724362368    1.54006245135332    0.76000117900594
O           2.42456562578403    1.18345546558093    1.70263904893526
H           2.54263004493966    0.53417455473458    0.96924635855517
H           2.79663863823182    0.77429336770944    2.48469520071745
O           0.85895073195265   -3.09159140356514    0.16543892966624
H           0.63609822140989   -3.79798639016290    0.77481857383903
H           0.34144160394382   -2.30251558379430    0.44571053245801
N          -0.11974849498092    1.53796119936134    0.97692961401899
H          -0.12419813522063    1.95148488446053    0.00405355774222
H          -0.87325513551964    1.96701713510298    1.51220574874370
H          -0.34927631312750    0.51867375850379    0.85886524239981
H           0.82980180476083    1.60652836019507    1.40583451025074
