    26
        -50.46585326  Gyration_radius:  2.39916745789 Dipole_moment: 6.515
 S          -1.44751876845944   -0.25589205788467   -0.17790965870338
O          -2.44325563581517   -0.42685741994232   -1.20432328098025
O          -1.01908545998669    1.15451606431481   -0.07281588860085
O          -0.27086013946402   -1.10418201371121   -0.41587953476904
O          -2.03488360565320   -0.63281658783396    1.19924597447964
H          -1.34763382845986   -1.21770137138178    1.66690988753528
H           1.21354619017173   -0.54146110461240   -0.37708044332304
O           2.12336254839412   -0.13785768304392   -0.42677467714423
H           2.73794454352511   -0.86701783218405   -0.52455491712829
O          -0.78838096863563   -0.49306517890126   -3.21102128063850
H          -1.54022881644195   -0.45511489031758   -2.56619313407227
H          -0.39774894140739   -1.35826578466552   -3.06585177329255
O          -0.54453806937126    1.62497139303320    2.50722199853297
H          -1.28558562247371    1.21965325058294    2.96257580271766
H          -0.75638037506368    1.56320823145836    1.55485638901747
O          -0.12653225152779   -2.04880177447528    2.10289773883348
H           0.08130260412211   -2.26511671169175    1.18510914214225
H           0.55390293420041   -1.37686913454856    2.37030709311825
O           1.57083913669029   -0.04155653832637    2.39915035330513
H           0.91256604423346    0.66346362887539    2.57140088727991
H           1.91730301326506    0.13209769695048    1.51374304010441
N           0.60548606806660    1.40286548156211   -2.02714278824794
H          -0.08769992788964    1.47097990036728   -1.20110478657959
H           0.76307192368572    2.29805897709560   -2.47640499584647
H           1.46761207471632    1.00062264021480   -1.61744555009181
H           0.14339531959494    0.69213880905166   -2.66891559766263
