    26
        -50.46416690  Gyration_radius:  2.70881312633 Dipole_moment: 4.415
 S           1.53289295286411   -1.29063291052530   -0.22187945882301
O           1.09690244552101   -1.17912910056325   -1.59615327168372
O           0.42853995374748   -1.67097882686240    0.67004154327411
O           2.17162200388318   -0.06634343090991    0.25799530278984
O           2.59414046775765   -2.44176998385731   -0.15570670301574
H           2.84890300957204   -2.45645647547787    0.78792587032927
H           1.29593960077885    1.07419822782854   -0.44061621167772
O           0.63950580524956    1.62546535811796   -0.94566241338810
H           0.85971308835223    1.46963964205629   -1.86756239055556
O          -0.88925980950696    3.23754504181165    0.72781360214852
H          -0.99153131303491    4.09499978619276    0.31207407584295
H          -0.23437653921246    2.75150974697355    0.20076281088452
O          -1.35917550869100   -1.53774181941567   -2.54691047488815
H          -1.50421139556114   -2.47592170839174   -2.67648523332285
H          -0.40496583381260   -1.44195727460505   -2.33167388757425
O           2.54960982601022   -1.70693261260492    2.39626319992115
H           1.60177705786625   -1.85854485473090    2.27960628322913
H           2.70272391547839   -0.83548593275144    2.00411202551375
O          -2.89887354573100    1.51056222566935    1.29732474786241
H          -2.25487244982956    2.23251517786317    1.14321938971290
H          -2.92388657209959    1.37095253411183    2.24514782301902
N          -1.40706199962309   -0.07839865931601   -0.30018916294257
H          -0.74520011027101    0.65980947661327   -0.62228807030439
H          -0.80413087595591   -0.76784297926914    0.22695747065209
H          -2.14238948376158    0.35709170989035    0.29403283278134
H          -1.76233471039047   -0.57615233740269   -1.13814969935466
