    26
        -50.46861826  Gyration_radius:  2.49045832071 Dipole_moment: 4.697
 S           0.66849420474729   -1.12795470802081   -0.87900521408670
O           1.18783710663851   -0.37245035036582   -1.99209996950573
O          -0.72353437454188   -0.72431352212438   -0.56879820559103
O           1.48413677139090   -1.01004810067203    0.32275176408093
O           0.60941119530054   -2.62637513571619   -1.28630108209834
H           0.20806743619969   -3.07628674475073   -0.50736080345865
H           2.13927020425735    0.52040165179298    0.19747294512191
O           2.25314353970728    1.46234518125357   -0.06329831423735
H           2.50007376121397    1.42260537112125   -0.99207191049347
O          -1.40447767119054    1.64735386121904    2.36504133003238
H          -2.25646502353375    1.68432797107987    2.80071772807419
H          -1.11787905781881    0.70952796718357    2.39417009012842
O          -0.03186139410412    1.88980675650652   -2.78009338486100
H          -0.09138855022281    1.89601025447720   -3.73590206899678
H           0.40828222329506    1.04524320658480   -2.55037904999607
O          -0.71169675525857   -3.47455173278725    0.85317941064513
H          -0.67301076842679   -2.73137550030351    1.48282060907952
H          -1.61961054071259   -3.51889049616079    0.54406813919211
O          -0.61033484497059   -0.94132172188918    2.01348516277651
H           0.35736423533350   -0.93318551321707    2.01733928020148
H          -0.81345240643113   -0.84886178503875    1.05103550113183
N          -0.37034971644186    1.85398113395769   -0.12786911021697
H          -0.62016702267419    0.85697763610922   -0.37010096034048
H           0.68548440364336    1.86515893671376   -0.02552798874254
H          -0.62371683375411    2.43495428448005   -0.92873672578687
H          -0.83362013157881    2.09692110859339    0.76546282795511
