    26
        -50.45619432  Gyration_radius:  2.57564033344 Dipole_moment: 2.969
 S          -1.51697583201001   -1.64309219530030   -1.09943599128090
O          -0.59173668818707   -0.65942306625343   -1.60058499194565
O          -2.60598617642528   -1.02696123603910   -0.33871056653940
O          -0.87722224442183   -2.71368817723929   -0.34700981534276
O          -2.19442913134946   -2.33248524334620   -2.36057169114700
H          -2.75831883209527   -2.99522173607040   -1.97190229588972
H          -0.11525165263688   -1.92529329786426    0.75550867813265
O           0.29984981062599   -1.38050584588103    1.48523519266253
H           0.21491887256128   -1.90116478174903    2.28600106241941
O           1.65189339955786    0.78971644221640   -1.65509309192692
H           0.93018401004740    0.15357137785139   -1.80980506548694
H           2.11934584971801    0.46177666087128   -0.86722591097684
O          -0.08874601003070    2.52660554808141   -0.82780512976515
H           0.65023284246033    1.94043598472778   -1.17224545083401
H          -0.64289092168643    2.69791304397961   -1.59064139867635
O           1.12418023540627    1.93869705424298    1.81556087331069
H           1.84309411675564    1.34842773821408    1.56189373337283
H           1.01529116213564    2.55022587450880    1.08180616212897
O           2.62803745024367   -0.25189151030460    0.71149115813194
H           3.32353564837780   -0.90756110763582    0.64736406872038
H           1.81409262565162   -0.72385374787261    0.98384110002413
N          -1.25927668781586    0.82277302665366    0.87216432389247
H          -0.50044520217211    0.24199618371837    1.27142194748429
H          -1.91703961713063    0.14968997781082    0.36728614393777
H          -1.72117505448232    1.33557802202424    1.61702065012249
H          -0.82516198310456    1.50373502063731    0.18443631546723
