    26
        -50.46942770  Gyration_radius:  2.44019150036 Dipole_moment: 3.759
 S          -1.69373800114179   -0.14049212746457    0.50421193330974
O          -2.21432017876386   -1.00278722291900    1.53328648778924
O          -1.02772097031056   -0.92141521816634   -0.56605809506737
O          -0.75158312312503    0.84692023420073    1.02952284003429
O          -2.87373089656504    0.60926308218728   -0.15901816436376
H          -2.49352760560053    1.16702083991927   -0.88760013924388
H           0.10011293639206   -0.02006898377516    2.86677651466220
O          -0.03908516977962   -0.96702345779978    2.97923245121590
H          -0.96020572510233   -1.09181755252082    2.65152464432937
O           2.73930442110350   -0.59647005912222   -0.52061154248575
H           2.40624968584966   -0.56733118334160   -1.42515281931770
H           2.53748894065187    0.28360534991204   -0.15477300730403
O          -1.83589443787652    1.90348090238305   -2.18778276181932
H          -0.94613998168423    1.49044094047032   -2.31189569114719
H          -2.35521202225631    1.66623886250562   -2.95843683172677
O           1.50353078364349    1.72178586135969    0.15148147134049
H           1.58296015347747    2.63878095239056    0.41594063309376
H           0.63613259331125    1.40353334700941    0.52098698435124
O           0.47259208138556    0.57687071469869   -2.13909419703431
H           0.91523899595575    1.13513279491918   -1.47841561324704
H          -0.05953316492344   -0.06623449719242   -1.61965108510073
N           0.89207586667625   -2.04123697666908    0.75701254918547
H           0.06221787290365   -1.72097653721702    0.16465329315168
H           1.74354830382367   -1.57517035672365    0.34651137645047
H           0.68005721478517   -1.68026840844420    1.73467971560628
H           0.97918144717617   -3.05178129060686    0.75266904335079
