    26
        -50.46474296  Gyration_radius:  2.48553977458 Dipole_moment: 5.306
 S          -1.03756627692372   -1.32056218660901   -0.13936986397474
O          -1.12118821122356   -0.49968883198594   -1.35447981311957
O          -2.14998093766772   -1.05081664424781    0.75946728311901
O           0.24428962344071   -1.09920524616053    0.52213297201874
O          -1.12120038397675   -2.80719096865938   -0.55303283901242
H          -0.24721641179119   -3.00439943849126   -0.98660032332049
H           1.16586080299333    0.11029705451367    0.42396183515198
O           1.76875468013753    0.91538090805046    0.36682489305414
H           2.64615051386546    0.58320792462422    0.56686051933474
O          -0.69451669430919    2.00491159684550   -0.71019282186698
H          -0.93779897224046    1.13373168377351   -1.10605548823934
H           0.25617963267247    1.95165404017122   -0.55310256079854
O           1.33950546557909   -0.51497269293574   -2.27522290057799
H           1.77051802506517    0.03378537177929   -1.61258187193428
H           0.37956419998203   -0.46647776855307   -2.06706227690862
O           1.12293277549094   -3.12432705502167   -1.83798723415954
H           0.92535884432708   -3.50385207558852   -2.69712444723953
H           1.35902986985365   -2.17979145928227   -2.00447297961268
O           0.70638882339744    1.87984953887968    2.67308778347883
H           0.99595882016092    2.78685618268246    2.78270625078306
H           1.16215311421953    1.53324137176486    1.87475486238943
N          -1.72371981532151    1.34080967490955    1.61347813919578
H          -1.92892967235190    0.30955691460214    1.37827921843752
H          -1.42654648570032    1.77221235832718    0.68588882754398
H          -2.54820176724544    1.78844808995129    1.99896113189467
H          -0.90577959257119    1.42734166665646    2.25088172473440
