    26
        -50.46802610  Gyration_radius:  2.56453530523 Dipole_moment: 2.935
 S          -0.46183116129958   -1.29551264283441    1.62907261020658
O          -1.78514913349780   -1.22498667510189    1.06382718642516
O           0.12496924916059    0.02260890525454    1.85622485604306
O           0.44208816133782   -2.15278921025068    0.86864034803442
O          -0.61426772658033   -1.96743109549974    3.05530755323963
H           0.27858680929363   -2.08289083533631    3.36847513763598
H           0.00047447844661   -1.71462332504574   -0.65295723524177
O          -0.33314267259885   -1.29508245196163   -1.48060227082230
H          -1.17583123895189   -1.72014186361030   -1.65396830718348
O          -3.23863988424561    0.89316818126128    0.34100888486090
H          -2.84263892819845    0.03939840619488    0.61638987741384
H          -3.75354184825657    1.19975153066482    1.08838687212105
O           1.15515987948394    2.65448904554342   -1.66225468057404
H           1.13665140045044    3.07170344941869   -2.52392773976111
H           1.65661061652367    1.80663590134949   -1.77401555044113
O           2.57592521613967   -0.53625378709482    0.68488400354817
H           2.14501160971927    0.11800098120603    1.24593005033835
H           1.96779265983024   -1.29666702183830    0.70601503145944
O           2.13151202805947    0.20806032247600   -1.87298844551637
H           2.47511179792959   -0.04067839018735   -0.98816819672411
H           1.41986014107777   -0.41682039287101   -2.05095554336801
N          -0.66471910114611    1.17636182297874   -0.38273238161960
H          -0.09046137604888    1.92944374015238   -0.82523862958967
H          -1.66632204623888    1.40764812048618   -0.26039312770144
H          -0.59398462993441    0.30691335634129   -0.95599369489376
H          -0.28922430045434    0.90969393833411    0.56003338207665
