    26
        -50.45488105  Gyration_radius:  2.47423751294 Dipole_moment: 0.412
 S          -0.86630090377601    0.61656096037340   -0.89240078453467
O          -2.29706328522179    1.12792917755036   -0.79760427874536
O          -0.08192761327423    1.10658387022291    0.21478617787516
O          -0.86518242418515   -0.82868149563828   -0.99073223568452
O          -0.37368882504144    1.22682109128515   -2.19044572470337
O           2.29297861948897    2.30023779074778   -0.08735567285192
H           1.43932158446530    1.90549313054949    0.17860989159483
H           2.13998455682652    3.24273677579598   -0.17317729043169
O          -1.72540029348880   -1.85140807963880    1.37513528564161
H          -1.50206562054945   -1.74239363183041    0.43699818737040
H          -0.86744127841332   -1.68068603245403    1.83453717118150
O           1.65646384027941   -1.63610426302207   -1.02516143258517
H           1.71349629436919   -2.43212534242284   -1.55753071246761
H           0.70213638908787   -1.42510672339480   -0.94754876862699
O           2.05936170065739    0.72844699826953   -2.21769223151614
H           2.36862817735236    1.33894738574167   -1.50850167562048
H           2.09045702364455   -0.17125175215217   -1.81963970601020
H           0.67323161036011    1.03365561968835   -2.29080496870912
O          -3.13563208982097    0.30166546794286    1.42157156551540
H          -2.66796280850698    0.85335470795213    0.12911062429596
H          -4.05775725333006    0.04150859739598    1.35675630021669
H          -2.60649651416401   -0.55441938705663    1.52488762299685
N           0.74880355518169   -1.03024634832027    2.04674878942260
H           0.53913672357501   -0.15078898932638    1.58033356462385
H           1.43143769460506   -1.50632578462237    1.46810356942830
H           1.19148113990157   -0.81440373363555    2.93101673233963
