    26
        -50.46021163  Gyration_radius:  2.48564888502 Dipole_moment: 7.819
 S           0.33331180952315   -1.23470840602705   -1.82923892817481
O           0.23333135559853    0.08708290896990   -2.45273157061665
O          -0.93034364332330   -1.91557835818582   -1.73916885171246
O           1.06014381165949   -1.14591008076098   -0.56934871528492
O           1.23460492251054   -2.11224304115769   -2.79539432307462
H           0.55744556238239   -2.61072090170331   -3.23929704230162
H           1.84669930131905    0.05950539859119    0.13647176037491
O           2.24849399981439    0.87542052867697    0.53765363618046
H           3.19575681126056    0.73296491529002    0.53464655212631
O          -2.40076457312096   -1.23115611174223    0.43157911322234
H          -1.99751314551643   -1.53376947307056   -0.40176096549047
H          -2.28919122799943   -0.27196158980560    0.45526616984944
O          -1.63347153472546    1.50694100831302    0.93363546389551
H          -0.96284312739187    1.14567575592459    1.60335302689540
H          -2.27374418421911    2.00646904374599    1.44139446824719
O           0.20276989036353    0.61212656348335    2.49155876191133
H           1.03881525529264    0.78522315978034    2.03846660706981
H           0.06724430857435   -0.37043528713659    2.39760473615976
O          -0.15371232709232   -1.88612687989057    1.78032549459696
H           0.36918646984385   -1.82398267032805    0.96469344251430
H          -1.08236979628696   -1.83727962276790    1.47279464117329
N           0.26640816603879    2.06808197771020   -0.83917235022586
H           0.21874912209022    1.26114049760409   -1.56602996172652
H          -0.56431534154512    1.97285807597664   -0.20333596015661
H           1.12585874814356    1.88894641270922   -0.28534408244182
H           0.28944934680336    2.97143616579969   -1.29862113301119
