    26
        -50.46839073  Gyration_radius:  2.50350243768 Dipole_moment: 6.710
 S          -0.34492427041139   -0.36102415989846   -1.11742512629531
O          -1.02906756238661   -0.96592262594838   -2.36783804769041
O           0.01943468110301   -1.46323021986758   -0.22213436522571
O           0.84379134955710    0.34002325050331   -1.57428747630286
O          -1.29432585222707    0.53635573945683   -0.46460768879665
O          -2.10846075520805   -2.82255110998368    0.55730451405556
H          -1.28001435596884   -2.32660808548244    0.37493904773386
H          -1.92122351180327   -3.73714742557393    0.33988258597867
O           2.51284243557172   -0.89840271518332    0.20669908663841
H           2.62787540712439   -0.55546255992887   -0.68736957987330
H           1.60132498790228   -1.27884045082439    0.16473710359589
O          -0.63964251515605    1.08740683733593    1.97711736476035
H          -1.15562828601640    1.87554867623770    2.15845328451105
H          -0.91685815766740    0.79938618530026    1.06701294380053
O           1.53410060627447    2.69999214236591   -0.73992294278923
H           1.15075875595391    1.86437544204009   -1.11255934748444
H           2.10593658641947    3.04940478401587   -1.42520292575153
O          -3.28895963759492   -1.12633746348419   -1.15540118414323
H          -3.09748013466342   -1.83276765298146   -0.50294680319863
H          -2.96666572875501   -0.31141173245144   -0.74070164414509
H          -1.96911970774377   -1.11870600665826   -2.06374469833513
N           1.94577670656372    1.32146514263668    1.49214472918348
H           2.24639304611836    0.38334715383253    1.06952649018552
H           0.93961415554680    1.21908222041712    1.81239245043730
H           2.55454259520331    1.60827860965618    2.25022482711172
H           1.92997918226618    2.01374602447122    0.70370739203685
