    26
        -50.46475349  Gyration_radius:  2.61634220843 Dipole_moment: 1.405
 S          -1.85821891784019   -0.91875673984649   -0.79648879346783
O          -1.80157270715296    0.46150724084316   -1.24214847838371
O          -1.25370975828939   -1.09779861939486    0.51702803531120
O          -1.34365718984707   -1.87028376511887   -1.75992324780454
O          -3.40332696840739   -1.24093133490331   -0.62488878090441
H          -3.40171413269535   -2.17028492070245   -0.41935977893886
H           0.24202598649290   -1.74081051743298   -1.61637832532168
O           1.22171381646603   -1.58472861657530   -1.60329569172685
H           1.58488664248506   -2.17531760624727   -2.26621794697993
O           0.80259275889845    1.12174136143354   -1.46348633264943
H           1.12972668682034    0.22657976367012   -1.65284259784440
H          -0.15791026586409    1.05775126449342   -1.61682835530948
O          -2.22635477535562    2.32519923579187    0.62347061648800
H          -2.70908367536609    3.06099212452979    0.24546320704216
H          -2.18955695429914    1.63692433058854   -0.07397445994475
O           2.09888207594111    0.27660282187578    2.76984455769779
H           2.51072620735930   -0.14280104622240    1.98403957541962
H           1.89278978807153   -0.43693569688244    3.37548842703243
O           2.90248015645397   -0.74095489427070    0.40687559066636
H           2.23799146665228   -1.17426003365368   -0.15696126438082
H           3.27580972628935   -0.03541321692257   -0.12551224984691
N           0.10425879750039    1.05280459900578    1.12501042327151
H           0.56567508370886    1.22935594476706    0.20001527437157
H          -0.43479874924354    0.15145112633582    0.99456515266670
H           0.80431020494127    0.94000475205650    1.88605679396964
H          -0.59396533381720    1.78836243252910    1.29044865940860
