    26
        -50.47054113  Gyration_radius:  2.47162416001 Dipole_moment: 5.239
 S           0.30045085774671    0.93249330474250   -1.07168240810593
O           0.11497603771863    1.30830374196547   -2.44657526375555
O           1.55097610241509    1.35507833550888   -0.45899481418206
O           0.07954327663246   -0.50660597814689   -0.85489503254548
O          -0.78795594510671    1.66755860432687   -0.19162597984096
H          -1.67915499617761    1.29516902768618   -0.40982137309565
H          -0.84511129356406   -0.83179057167443    0.49304817273773
O          -1.32058570993330   -0.71472554447894    1.34643729777344
H          -2.18651138979116   -0.37905034392668    1.09535602119216
O          -3.05556341287981    0.49877057500862   -0.77219893324093
H          -2.69779390664914    0.06354379193335   -1.59666158708610
H          -3.74697794588895    1.09327831253743   -1.06963940152761
O           2.59217356276522   -1.24114233280871   -0.34738794963844
H           2.96877853144157   -0.37610813587813   -0.53906300423491
H           1.64869040173412   -1.14159826234949   -0.58701886907407
O           2.43580701250370   -1.41721124890934    2.27728590469181
H           2.62931123039372   -1.43954838540495    1.30299393404048
H           1.96138139296699   -2.22864707274248    2.46807570047736
O          -1.82931496730338   -0.41320608041182   -2.89136374396649
H          -1.36242137086861   -1.20698314414398   -2.61471565539052
H          -1.13091739646991    0.27912781365095   -2.91563570987081
N           0.86989797821877    0.69891124696786    1.98030378578464
H           1.18235502945990    1.06065397013951    1.02708195605397
H           0.87390946441989    1.44804948460281    2.66404826144396
H          -0.09072479819172    0.28631351134080    1.86261964389775
H           1.52478224441480   -0.09063463944882    2.25002906742319
