    26
        -50.47051006  Gyration_radius:  2.44997215367 Dipole_moment: 5.709
 S          -0.51819842556883   -0.44661604610483    0.75697580741124
O          -1.22764789041307    0.72452892003328    1.24964709041295
O           0.73924589003711   -0.67076031268841    1.47316290521730
O          -0.26878778783355   -0.33974341874144   -0.67751476050718
O          -1.38184460218356   -1.70731277718100    1.00554696375948
H          -2.33012887701789   -1.40162560314699    0.87989540255419
H           1.18558635483377   -0.42434803586380   -1.69976103770263
O           2.15327048032664   -0.52473120844752   -1.78279166851039
H           2.31481454911359   -1.38710554585005   -1.35057583171296
O          -2.60518790061459    0.26692671084247   -1.76901077531551
H          -2.53926365327268    1.19176249460689   -2.01316365469072
H          -1.71139169505378    0.00498436767377   -1.46294741435434
O          -3.58057702637004   -0.44602438689620    0.63257889633243
H          -3.10649856636878    0.27622024414272    1.07070008817070
H          -3.49456250950042   -0.25700921436654   -0.32528900523240
O           0.30586282213345    2.69267160192656    0.42925233134299
H           0.15449876713363    3.41058200949382    1.04714736506269
H          -0.32233800622408    1.97792204217941    0.69057480389431
O           1.86493460703358   -2.58016126724021   -0.04422541115215
H           1.46196358155401   -1.97666355751276    0.60890414763297
H           1.18866355178292   -3.22755024341722   -0.25035305272080
N           2.38090731587446    0.99396207244597    0.31223015043005
H           2.44296814259134    0.47906328640175   -0.63544416251277
H           3.29067187842033    1.23704867559454    0.68843989235717
H           1.74689010661001    1.81955310476873    0.23477636805388
H           1.85614890296898    0.31442608736260    0.93124455178565
