    26
        -50.47304518  Gyration_radius:  2.41252205659 Dipole_moment: 4.415
 S           0.99116948548947    0.32527683051290   -0.95069448365226
O           0.99479225731826    0.88511783930314   -2.38641344262866
O           0.83557412921103   -1.12457414202909   -1.00348689218750
O           2.24796760123812    0.71439806836636   -0.32939170304079
O          -0.14455170146373    0.93158113075334   -0.23846941302951
O          -1.66089318994308   -1.69258937538752   -1.70478184227229
H          -0.70291364420888   -1.66005909083802   -1.50212381625999
H          -2.09505657304352   -1.49735568112815   -0.86298683968419
O           0.33936742239831   -1.87017538026206    1.48774602298434
H          -0.59759278726657   -1.60596323654814    1.48894726334510
H           0.60035302630970   -1.79969403988545    0.54330735343861
O           0.10694592264525    2.22039599205054    2.03256072168364
H          -0.06763539786379    1.81580555898858    1.14845765775825
H           0.41223289686106    3.11108895036537    1.85409076108809
O          -1.98852507984053   -0.57162126985908    0.85579245538814
H          -1.34463581412098    0.02519762100344    0.40324674307342
H          -2.58571637628851    0.00055692524663    1.33945261815934
O          -1.39742697435359    0.41722424838923   -3.22859877716835
H           0.05817064176886    0.77069222111406   -2.72405205784042
H          -1.35597886661976    0.10550773419838   -4.13519980876237
H          -1.63209554328325   -0.37729524580566   -2.67482274579608
N           1.81836478891959    0.17375646609167    2.15612748786260
H           2.15843532519024    0.38909063708109    1.16331690985850
H           1.22362657069646   -0.71279822777302    2.05152800416975
H           2.58511435096015    0.04901866654772    2.80751711531709
H           1.20090752928882    0.97741680951387    2.40893068819639
