    26
        -50.46122779  Gyration_radius:  2.69122233626 Dipole_moment: 2.889
 S          -0.17782280859609    0.43753171223452   -1.92582486615672
O           0.98230303113054   -0.20519940917902   -2.47439356360334
O           0.17806419053021    1.31597192926290   -0.79926098311438
O          -1.20447111716007   -0.52517599777016   -1.48786195241903
O          -0.82469010051577    1.32696275744040   -3.03504215447086
H          -1.74563186871517    1.50057445410077   -2.74745270533824
H          -0.19163710917269   -1.77300963807484   -0.97000967161656
O           0.59157577482351   -2.32393764621271   -0.75074892884648
H           0.99855242511683   -2.48863696665064   -1.60662011626663
O          -0.11141474508273    0.40264911405380    3.44264177606406
H          -0.64352156304278    0.39719620176910    2.61222864644616
H          -0.26453081107273    1.26132583920617    3.83980275970664
O          -3.24760333580354    1.04443648967652   -2.00124335737901
H          -3.88250137373982    0.62121820611535   -2.58291029507847
H          -2.66909072587992    0.33433752799621   -1.65420549466789
O          -1.45017661556957    0.55159011725698    1.15227855503843
H          -1.81329842184908   -0.21143957506535    0.69524649255211
H          -0.89090077397535    0.99407129800044    0.48185052486551
O           2.35031747099272   -0.26097448867134    2.80291438604246
H           1.44947413273921    0.03595286903851    3.09474704811938
H           2.47733179773666   -1.12489206144440    3.19893978495823
N           2.04055061879930   -0.26140191595604    0.15753370516196
H           1.37498131891836    0.50550061363852   -0.14300185875069
H           1.55418330303481   -1.15924188512707   -0.11805168431485
H           2.89646918331964   -0.16347330715825   -0.37997522683109
H           2.22348810298810   -0.23193623841158    1.19841917989149
