    26
        -50.47322684  Gyration_radius:  2.4128727646 Dipole_moment: 1.507
 S          -0.63483753341852   -1.50522275017840    0.82848730123889
O          -1.76620766201952   -0.59852261522718    0.67494429517144
O           0.43272778532871   -0.95516956859243    1.63185504618539
O          -0.17473641775625   -2.00397197032753   -0.45971417817673
O          -1.18993849002137   -2.75567233355474    1.61891700212411
H          -1.93235592344875   -2.99196576940515    1.07472852137380
H          -0.48269927160905   -1.20686466031706   -2.03337121546581
O          -0.39184381749188   -0.57633939208540   -2.76969733312560
H           0.55681044157994   -0.50270370531659   -2.91244774635904
O           2.15000944463353    0.71120377917916    0.44454884850798
H           1.65766624002488    0.08740060120230    1.01543062282877
H           2.32603752318170    0.19231940925329   -0.36283118693558
O          -1.58602761812267    1.27569092959089   -1.25439335396161
H          -1.86048160441390    0.60994903238968   -0.59514550043777
H          -1.19825520366754    0.74379074860684   -1.98192593243678
O          -0.99268228599617    1.18204069948900    2.46076244996563
H          -1.52497596373080    0.60124065096110    1.87981490794244
H          -0.27506033030075    0.59700316511776    2.73690346531974
O           2.15827399139584   -1.20969850135018   -1.45794742233442
H           1.33670899769616   -1.56925619219756   -1.05500976038615
H           2.81806257370022   -1.90006366742072   -1.38038519573054
N           0.12571399898123    2.39023993437744    0.37211465521973
H           0.28649768687111    3.38938098528972    0.32280891063682
H          -0.32643142869223    2.10817960043983    1.28569564756220
H          -0.54160220450026    2.05174144597117   -0.39470498296789
H           1.02962708179171    1.83527012412751    0.31056213426702
