    26
        -50.47395396  Gyration_radius:  2.40837027116 Dipole_moment: 3.050
 S          -0.75300362170282   -1.58172138195063    0.18080804780612
O          -1.64040680983975   -1.55274313235510    1.32169834633056
O           0.63537597003431   -1.29691166953109    0.56324269787140
O          -1.18864533038334   -0.68300191075832   -0.88013592848833
O          -0.76602083225602   -3.03913866227245   -0.39812194085710
H          -0.03588999093649   -3.04657025087603   -1.03643328961099
H           0.03898480104358   -0.13007394499039   -1.88524995260713
O           0.87295892823739    0.19994306724325   -2.28233971031070
H           1.44965205813067   -0.57130850490600   -2.30816823542795
O           1.00950874485089    2.26773061575343   -0.65071629377217
H           1.44732379218158    2.99081913636023   -1.10161219485038
H           1.04401774802696    1.49449118434277   -1.27130739971545
O          -1.71276428976821    1.88364135566986   -0.30298953965966
H          -1.70841399241712    0.97664286547809   -0.66899267620727
H          -0.81380927189186    2.21734830159871   -0.47633790969471
O           1.17979662854502    0.99940305452814    1.79696878519763
H           1.14780904800467    0.09279246424556    1.42818312546859
H           1.26487048260405    1.57410307367124    1.01631549382949
O           1.66739607324670   -2.44372925938705   -1.49408014937694
H           1.46013357263348   -1.95010044403285   -0.66438070634733
H           2.39383271651688   -3.03517701284128   -1.28874062022252
N          -1.41892249356535    0.94050009271382    2.11656173778995
H          -1.60438189309862   -0.08275794757856    1.93190091160095
H          -1.69591227616602    1.45582301670039    1.22306123612204
H          -1.91328347561209    1.27253685436679    2.93679559670987
H          -0.36020629641809    1.04745905878580    2.19407056841429
