    26
        -50.46751266  Gyration_radius:  2.49224773472 Dipole_moment: 4.343
 S          -0.47395571332823   -1.82582282767025   -0.92299276098389
O          -1.52795021482309   -2.78693693862977   -0.78928225598548
O           0.31138007179737   -1.65246121592395    0.31271688912291
O          -0.95795167562563   -0.52672372834482   -1.38402451052607
O           0.55437271628029   -2.34088820808063   -2.00071714032125
H           1.33622696905584   -1.78228399287565   -1.91175770673602
H          -0.23313314440323    0.86327416445327   -1.51031525585300
O           0.31589830206891    1.69222352876313   -1.54025741060638
H           0.06011501199902    2.15725496617051   -2.33748974451117
O          -3.15519298030159   -0.92327462174338    0.23924988136827
H          -2.72357486762703   -1.75137044964128   -0.05669237868582
H          -3.13644114824724   -0.36644051862272   -0.54517548600608
O           2.61384408404908    1.27349353074485    1.40847780114517
H           2.63010080158145    0.66327266912152    0.64281433118624
H           3.41850581906773    1.79106265122209    1.36244300460136
O           2.18902626428502   -0.24175686159325   -0.83954492681835
H           1.68449280457184    0.50833184238001   -1.19533477833788
H           1.55942749382247   -0.76608878756723   -0.30138134204727
O           0.07547677847377    2.18953813571732    1.13562151445862
H           0.08624402567664    2.18997125180286    0.16116756277318
H           0.99420792152637    1.96212803824895    1.38634505785954
N          -1.13784532217830   -0.05358661800527    1.76515460413637
H          -1.21381464242008   -0.20715169806027    2.76496306257270
H          -2.05185903131015   -0.24283507265031    1.27915621841286
H          -0.74866405505240    0.92218041231094    1.55309493628465
H          -0.46893626894078   -0.74510966144708    1.32376084354673
