    26
        -50.47136160  Gyration_radius:  2.44330533016 Dipole_moment: 2.088
 S          -1.12613842600278   -1.64149717326024   -0.58986190647146
O          -1.35643009724004   -1.52714939976579    0.85079749879135
O           0.25113933597289   -1.87930449707075   -0.91944110693144
O          -1.71016293591253   -0.50804787976256   -1.29767922360546
O          -1.94581173367667   -2.91334582961658   -1.05422424882039
H          -2.82381467408096   -2.67315318083115   -0.77999143229466
H          -0.65388751028622    0.59735427726261   -1.79654865338389
O          -0.02903333803351    1.31592591454887   -2.07851561041682
H          -0.34567293866419    1.61893447816118   -2.93061445354424
O           0.14982250968262    2.38359881342468    0.45543229468504
H           0.11473037486857    2.23132018582594   -0.50463128313495
H          -0.68417950780369    1.98573829955922    0.79768573514341
O           0.73521718033223   -1.23534040585906    2.39261949476140
H           0.00889239337295   -1.46781377811952    1.76683876115015
H           0.29608623334270   -0.98861093811362    3.20923558801100
O           2.19402036782971   -0.18412726793365   -1.47054073869660
H           1.59303424983500    0.46331886237035   -1.87777609195657
H           1.62830670300824   -0.97530631714825   -1.35473722936536
O          -2.07527516715124    1.01429433883375    1.00477407227527
H          -1.82520626854204    0.07098942122600    1.08385368404677
H          -2.49162932299121    1.06317573974877    0.13901003617016
N           2.04133097672690    0.65411200320918    1.01057002802714
H           1.31844448245515    1.43192284027993    0.88709853374568
H           2.88966918361625    0.99836214947513    1.44524257983117
H           1.61010427154526   -0.11248512731920    1.58399867960026
H           2.23644368780014    0.27713446085751    0.02740497236446
