    26
        -50.47304513  Gyration_radius:  2.41257061333 Dipole_moment: 4.413
 S           0.63392080612122   -1.26009845150394   -0.04142396378260
O           1.47533705340234   -0.35441102751527   -0.81651464170102
O           0.43260364752015   -2.56551056670748   -0.83518730403408
O           1.24531333195314   -1.61474453047525    1.23030438835068
O          -0.69219019359705   -0.66043385523422    0.17433160917098
O          -1.20613104821260    1.77165402748671   -0.64931557701959
H          -1.06591520192250    0.83164033871683   -0.38032970148055
H          -2.08339596323911    2.00684492239716   -0.34418305790388
O           1.31025722144707    1.98403864301932    0.41346147726388
H           0.43792853385091    2.22665554391906    0.05597151778320
H           1.56617528536858    1.19432237008103   -0.11180647620009
O          -1.60851500955719   -0.01812631189213    2.54707175831211
H          -1.37279157004691   -0.29367996621746    1.62818824742470
H          -1.94476285009067   -0.80661292342521    2.97561241236973
O           0.06682292772628    0.58545527349678   -2.86093256896904
H          -0.48108821442343    1.21983077494957   -2.37861170436627
H           0.73676570114127    0.29191890091956   -2.20914734299860
O          -0.94772696733129   -1.82559000211325   -2.88401811281983
H          -0.15208679980589   -2.32249603554940   -1.61203818398733
H          -0.66437003314992   -0.87321521865352   -2.95909217792267
H          -0.60866191405734   -2.26547694455712   -3.66652085953352
N           0.99687099117929    0.56751456898954    2.58316710439211
H          -0.01987729959186    0.51674713954487    2.81709620098393
H           1.57655219663583    0.75311886308456    3.39390189434420
H           1.22233394423089   -0.37595010439789    2.12849754329047
H           1.14663142445916    1.28660457164194    1.80151749903689
