    26
        -50.46887319  Gyration_radius:  2.48692618062 Dipole_moment: 3.030
 S           0.69988730197397    0.86554891743626    0.47432261658338
O          -0.14012472191314    1.30867161936426   -0.63004838489127
O           1.80157814700852    0.03499215594045    0.00397037843874
O          -0.10081541849476    0.15625161849808    1.48123376108334
O           1.34491923269766    2.09333061121972    1.15229455749982
H           0.60853374772717    2.67388359426755    1.48670157103783
H          -0.63976373099911   -1.20505099448766    0.83485667407618
O          -0.99040564904326   -2.01247070294156    0.37495719242727
H          -1.66964450381771   -2.36912611043621    0.95010133581233
O           1.56392930016968   -2.86151946067747   -0.17617084915869
H           1.96470456273914   -2.09990866429755    0.26348291988345
H           0.62105303149764   -2.80995368869799    0.06097322777913
O          -2.26124239753227    1.62030982850498    1.08302002282184
H          -1.57798256457140    0.97015642343016    1.34711711681235
H          -2.08017145884678    1.77370615683221    0.14846637251548
O          -0.65901247895950    3.44392258397565    2.11524302977149
H          -0.66875900915631    3.33935149299097    3.06896184586017
H          -1.40632018383878    2.89607209573560    1.76559114436114
O          -1.12812724340144   -0.67801258910924   -2.03571504244565
H          -1.33396658112610   -1.27678441300112   -1.29782924294575
H          -0.88887407281596    0.17297078611910   -1.60001924639666
N           1.40677399511925   -1.21403858939185   -2.22642488098552
H           1.95719579408931   -1.12508071746035   -3.07207066508871
H           0.35636102266108   -1.05778782701999   -2.37370130704761
H           1.54260467782651   -2.12551437639420   -1.72590786826168
H           1.67766919099164   -0.51391975034843   -1.47340626955453
