    26
        -50.46834919  Gyration_radius:  2.45287955987 Dipole_moment: 5.018
 S           0.04854464495154    1.48500856198438   -0.49830301747311
O          -0.99537487166327    1.81570586658781   -1.44748020087223
O           0.92966524027325    2.56497005987183   -0.14074602354521
O           0.96225997547958    0.38551540671434   -1.24225370212639
O          -0.47224952104520    0.76176147580846    0.65692957476082
H           0.88048210065002    0.41947224955779    1.52552568840950
H           1.30029150351325    0.91613639823169   -1.99282118078173
O           1.65149009114134    0.06954968245944    2.02775635898589
H           2.31300577484727    0.76204346809042    1.98619699102957
O          -2.21361107707078   -0.48976186672200   -1.31605677029649
H          -1.72031711413355    0.36092956754387   -1.41578607729537
H          -3.08803453801661   -0.23081875016407   -1.01671813228945
O          -1.22468789118745   -0.78878323092330    2.68865195553914
H          -0.37248116505349   -0.79851259003080    3.13614629455071
H          -1.17956672377840   -0.01667945699730    2.09730236411905
O           1.59843854220295   -1.87324461866649    0.14759992790092
H           1.56397519909835   -1.20754833879948   -0.55746374636634
H           1.79205902163036   -1.34867236705901    0.95168560527029
O           1.35183161883068    2.48316943440468   -2.77293604766764
H           1.44275761050087    2.86686007305481   -1.88349997695778
H           0.41200795243984    2.56287262105811   -2.97163324207783
N          -1.00934315397664   -2.16698873783065    0.40479865886319
H           0.04930985183089   -2.15152157367330    0.26072240200048
H          -1.38513759118898   -3.10321195526596    0.30023191197983
H          -1.18740475649313   -1.77269352887604    1.36474660652227
H          -1.44791070379899   -1.50555788036255   -0.29259619211191
