    26
        -50.46435769  Gyration_radius:  2.44183830338 Dipole_moment: 2.692
 S          -0.70413870649611   -1.73087909672261    0.37813531581670
O          -0.26635585174147   -0.93476576645102    1.51741451251044
O          -0.26640081050875   -1.14537016238439   -0.87446507366624
O          -2.09747304599891   -2.08982070421154    0.42461487464833
O           0.11022052970174   -3.10583302198775    0.48287522728435
H          -0.49113877755985   -3.67789843794265    0.94918113592018
H          -2.37433897488510   -0.44548097100592    0.23738723775226
O          -2.59452404081002    0.50292776000189    0.16474361171536
H          -3.55131468109503    0.54058963555016    0.09678987192901
O           0.36693647099917    0.87021436662213   -2.57573443396996
H           1.31502281792190    0.75635211369965   -2.46230824628010
H          -0.02939771677641    0.09751343371211   -2.14054186762225
O          -0.94953424209602    2.44589794299795   -0.87488622292064
H          -0.45190310047872    2.01831177809255   -1.60845701213810
H          -1.69937487582556    1.85086275883813   -0.70200351729951
O           2.31906270528768    0.16885042142896    1.40005806443693
H           1.62542693112238   -0.45109620833082    1.67365611331824
H           2.55152617071619   -0.11419155321920    0.49439585878945
O           2.34776425709649   -0.91175439809326   -1.07950477666257
H           1.37593831355808   -1.05191862982695   -1.00907578286692
H           2.73193004563699   -1.78484014091332   -1.17029008573421
N           0.14924292886315    1.67266214515907    1.34645883555337
H          -0.29880706996725    0.72988698183019    1.45427490200212
H          -0.21890536658875    2.09634383126797    0.42399246488025
H          -0.06854371151736    2.26657591062379    2.13866423279823
H           1.16907978144412    1.42686000127192    1.31462474980908
