    26
        -50.46858300  Gyration_radius:  2.51218611495 Dipole_moment: 4.686
 S          -0.29521452880396    0.78327437333469    0.84110536490107
O          -0.77804617311940    1.54665631637517   -0.28400583075987
O           1.16747694256622    0.62947527305449    0.78968847854085
O          -0.92404721025797   -0.54535129627692    0.90823277990674
O          -0.66352357136399    1.55138332939509    2.12673209866252
H          -0.37060405908186    1.01545956239673    2.91427854373956
H          -0.72405354663871   -1.37679050447125   -0.44680739348522
O          -0.47463506827744   -1.85008857456670   -1.28527010829096
H          -0.48104240211133   -2.78491029715479   -1.07260129491487
O          -1.98388886531880    0.32108618358614   -2.39439547302912
H          -1.71886587864348   -0.59564785754635   -2.25961937283718
H          -1.82387129814451    0.76089929821604   -1.54025540089365
O           0.10291519536427    1.91653255114405   -2.87800086603601
H          -0.71595741484285    1.39998420655743   -3.04745412061385
H          -0.10312940581908    2.37814769329892   -2.05290043483149
O           0.01720602214240   -0.01216165905053    4.09659596126078
H           0.48772473769856   -0.72039444516736    3.59221076492877
H          -0.78075724773444   -0.41153389279368    4.44932361098926
O           1.03472948074829   -1.64661162957103    2.27877673726192
H           1.67162058080652   -1.01464913137924    1.92221970516485
H           0.21909202341776   -1.44381571653849    1.77526782527432
N           1.45554059626367    0.00757907452589   -1.70438814947165
H           2.39128620248859   -0.19894602871851   -2.03723484970849
H           0.83882962829869   -0.82839893184927   -1.74118274564348
H           1.45865379714994    0.32002512199825   -0.67974022170716
H           0.99256144323196    0.79879697120138   -2.27057560840519
