    26
        -50.46246002  Gyration_radius:  2.70430533817 Dipole_moment: 4.426
 S           1.64251812849593    0.99397295379419    1.48223514877480
O           2.21747415599699    0.51466707027879    0.23095073763823
O           1.49683840006243   -0.01607896449548    2.49511540398692
O           0.38168183665421    1.70135898949519    1.23117216750890
O           2.66124450725829    2.07939081410143    2.02697885486701
H           2.97216679689544    2.47527024143978    1.21911962617800
H          -0.85880467810154    0.85187492850044    2.01260856896984
O          -1.63929797439677    0.32758070489951    2.29766139295698
H          -1.70294718090456    0.45978343750324    3.24461554096110
O          -1.18454536649228    0.49963384882663   -3.26201394890886
H          -2.05462800141236    0.56632658133751   -3.65828603440458
H          -1.26504046219035    0.84927608484393   -2.35978476310113
O           0.21891942210180   -1.83704702265257   -3.14255605187972
H           1.01035237059446   -1.76321052333905   -3.67773741899229
H          -0.30471215068797   -1.02844459771702   -3.31221976304433
O          -0.20848786559042   -1.98523887824131    1.89464725014496
H           0.54856937077653   -1.48784667543805    2.26158730868737
H          -0.96447971072357   -1.40141889247774    2.08376428505186
O          -1.45032177957831    1.07300217498452   -0.54448085739134
H          -2.15213713453041    0.89486860013491    0.09015629670802
H          -0.73979321560026    1.49107845056793   -0.00514577720669
N           0.27664949196075   -1.07676016983055   -0.53510504490715
H           0.35479527781792   -1.60907817765825   -1.42225683868869
H           1.15237422276641   -0.52491369611041   -0.33684479023838
H          -0.48746552644625   -0.38166152023085   -0.63321279798562
H           0.07907706525510   -1.66638575255163    0.31903149429285
