    26
        -50.45806929  Gyration_radius:  2.80109876442 Dipole_moment: 4.068
 S          -2.73331552857268   -0.94110011677776    0.07063456218802
O          -3.16662537287833    0.33989868076717    0.54251550790245
O          -1.94835179978060   -1.70787947671810    1.03761184114337
O          -2.00589664820341   -0.84632134625496   -1.20685886837357
O          -4.01654416155918   -1.83331788988845   -0.21512987153116
H          -3.71158112172249   -2.71859351950902   -0.03802012688077
H          -0.46378498142569   -1.29014920347893   -1.50779202684270
O           0.50749585711677   -1.46319594638773   -1.59528425380344
H           0.59837936779636   -2.17268399301149   -2.23177017122670
O          -1.04627098596339    1.53651945985605   -0.60699321431224
H          -1.78369619755961    1.88050173141939   -0.09014523564083
H          -1.44022366738407    0.74930611428337   -1.04251850609510
O           1.49581679424600    1.13411903118760   -1.70400168927388
H           1.25564038543838    0.20035867307279   -1.82323682576413
H           0.66349415172843    1.59053687743206   -1.52630655882182
O           2.18020962127709    0.49728645631197    2.57721710973057
H           2.03812915818991    1.19380303896291    3.21968908421072
H           2.64526240780762    0.91309684230486    1.81624886092214
O           3.14284002486421    1.60949743051431    0.35330961367741
H           2.54428605343358    1.47553972105290   -0.41814593807206
H           4.03398607003962    1.51970681536526    0.01461266792960
N           0.25553746593474   -0.33032199759048    0.89834302532482
H           0.90362801881376   -0.10528216687407    1.68776657093947
H          -0.58462611040237   -0.91873733173160    1.16295624592576
H          -0.11823762908860    0.53985342962777    0.45760165329489
H           0.75444885784591   -0.85244132395198    0.16769655347250
