    26
        -50.47530407  Gyration_radius:  2.42327633057 Dipole_moment: 2.966
 S          -0.46323726527554   -1.62057547648852    0.38763000529494
O          -1.53933476252047   -0.72841862456245   -0.08698090398546
O          -0.43298767709392   -1.72404683928041    1.81814716094708
O           0.81611639468232   -1.18914701030855   -0.17084355962466
O          -0.77107052551983   -3.03228486937919   -0.21174070385955
H          -0.87440188156940   -2.85043154227744   -1.16006303582836
H           0.77609717406966   -0.27320389729499   -1.59894975766784
O           0.62775109226596    0.34445109517545   -2.34229184807105
H          -0.03114223155937   -0.08770540521452   -2.89191914844778
O          -1.46979390353826   -1.71744423575095   -2.47875360287807
H          -1.61164989220230   -1.18927655795958   -1.66076450958741
H          -2.33889832639308   -1.94706135697398   -2.81340445600513
O           0.93765102076401    2.39063439115363   -0.61729877184553
H           1.63280171030982    1.96558718879189   -0.08602950042905
H           0.82892123126419    1.80864067182324   -1.39658303658766
O           0.33745645271352    0.58750146478001    2.90749176742525
H           0.04777056324786   -0.32847579287169    2.71319189250813
H           1.21732460061387    0.66450321611769    2.50290937104476
O           2.32683976942086    0.60603969376279    0.99043705679230
H           3.23798548513088    0.31192709451163    0.95287117402791
H           1.79311544735995   -0.10828940215872    0.56506281519410
N          -1.03428122480300    1.64822825991357    0.93847822284262
H          -0.29656231122235    2.07333693682522    0.28624533209400
H          -1.36367105359157    0.75026995896105    0.50219198071824
H          -0.54700473576577    1.36172063979115    1.84380391233166
H          -1.80579514081521    2.28352040891203    1.10716213364364
