    26
        -50.46648864  Gyration_radius:  2.43171056233 Dipole_moment: 3.454
 S          -0.56362458325481   -1.28209176904178    1.09079483971609
O           0.64274537187150   -1.89490590577693    0.59356240794298
O          -1.66548599281227   -1.37937781300765    0.13265692135672
O          -0.38533612806174    0.08834432180588    1.53952908489948
O          -0.99192298659624   -2.11521923678776    2.36708550372184
H          -0.53533821106999   -2.93718241486547    2.22070381428021
H          -0.42851204774799    1.28851121611661    0.34040164161274
O          -0.59266163789919    1.82230513370346   -0.46721184232094
H          -1.56164924125139    1.91299383603704   -0.46674060759436
O           1.96787504906566   -1.04988554321999   -1.59297688953885
H           2.30614485386054   -0.16637019354091   -1.31146018071158
H           1.73726356710314   -1.50927901881363   -0.76393172183207
O          -3.10828905424340    0.88888281829713   -0.11407757817178
H          -2.67957805945247    0.01822757309231    0.00597369007006
H          -3.62494011638138    1.03860614600945    0.67862249806238
O           2.32490110731703    1.40967835021055   -0.63186047517923
H           1.48170599386995    1.87153758156398   -0.68701579223381
H           2.44611717448549    1.19495882156724    0.31388424860202
O           2.15890721784160    0.73624783600145    1.99685005776080
H           1.24728494309217    0.39995615840321    1.89039937652023
H           2.12531871637374    1.39375646437173    2.69378158614535
N          -0.47422658861490   -0.34989218085026   -2.00189709344958
H           0.56382641580111   -0.69094676396990   -1.98500086495279
H          -0.49162945271264    0.62729926152465   -1.60362832737427
H          -0.88961139638624   -0.38984504750066   -2.92607667239575
H          -1.00928492415227   -0.92630965142155   -1.31236761485954
