    26
        -50.46906639  Gyration_radius:  2.4688300804 Dipole_moment: 4.272
 S           1.11728507744254   -0.08962667400431   -1.85982998161004
O           0.52248997063693   -1.17840169544527   -2.59918030259808
O           1.62733793998933   -0.51200082457834   -0.55206804574044
O           0.29172748314464    1.08982013515946   -1.74437394241605
O           2.39868682912110    0.34322954560554   -2.69512523472821
H           2.62087163704952   -0.47702650247070   -3.12273260947441
H          -0.19035489373552    2.04977341143949   -0.56798969708274
O          -0.45913079375981    2.58964751522828    0.21951604202329
H          -0.67241322182567    3.46137173701544   -0.11528464928880
O          -2.19925109792784    0.45087686500785    0.89066823460068
H          -2.06668575391160   -0.14362871698266    0.13337362588672
H          -1.75312424435899    1.27819340536170    0.66141408661181
O          -0.56105326962810   -0.70088631867407    2.64218014621902
H          -0.32762887937360   -1.49429913842865    2.10227237988890
H          -1.34231275618370   -0.31667918617380    2.17921430781327
O          -1.65281094228823   -1.33440035887918   -1.17382279817691
H          -0.85508748592464   -1.25995115936813   -1.74624863087437
H          -2.38167346370870   -1.55479108291188   -1.75694331726177
O           0.10689473937343   -2.40133361146410    0.71327860865969
H           0.78543200739399   -1.87705500979604    0.25488306647367
H          -0.67285715710834   -2.33342565813920    0.14464013648229
N           1.15727593590191    0.90467716545076    1.61389782431705
H           0.63072992965741    1.73619490704446    1.30340147054390
H           1.43489440305512    0.37004393506532    0.74494794729327
H           1.97131521446520    1.15736016696585    2.16154309854838
H           0.46944279250572    0.24231715797345    2.16836821389038
