    26
        -50.47289141  Gyration_radius:  2.42596226071 Dipole_moment: 2.387
 S          -0.46495802881949   -1.56270801838290    0.61293763330645
O          -1.82648338645532   -1.83927367773305    0.22593655837124
O          -0.35891211881837   -0.53739273052120    1.64473266248444
O           0.40093576771683   -1.27285953317226   -0.51726484636801
O           0.08293980710937   -2.90273235908253    1.26966477581184
H          -0.69359643131622   -3.45127509225474    1.24406492838792
H          -0.06450085639202   -0.33687440325722   -1.79378486185234
O          -0.35898094218287    0.28576732114248   -2.49791504566362
H          -0.07356781331838   -0.09701199240514   -3.32879135814105
O           2.51277870682982    0.38555117559513   -0.17221699752437
H           2.72557061568309    0.18853907295185    0.75310033971086
H           1.86000922885465   -0.29762568551401   -0.40470276701282
O           0.87576354541249    2.29419150482524   -1.00997791511409
H           0.51014666782144    1.79482560671679   -1.75853387739512
H           1.61567168921961    1.73096283643786   -0.67537926827425
O           2.22575471543605   -0.94779378961804    2.22772409988536
H           1.27395839501063   -0.76630022399432    2.14354053313263
H           2.31730962194915   -1.89678221301346    2.12549855987069
O          -2.64923623474063    0.42413632456961   -0.95252997352921
H          -2.07709748967239    0.41778201575523   -1.73656057887589
H          -2.52296944702737   -0.45180994100515   -0.53394601066019
N          -1.07057222806170    1.79703622879478    0.64684069554515
H          -0.74453072821783    0.96649262704912    1.19573484904697
H          -1.83943992386088    1.41702350391916    0.02062356113341
H          -1.40040398867261    2.53831299609582    1.25435845746043
H          -0.25558917348614    2.11981844610130    0.01684585626613
