    26
        -50.47398705  Gyration_radius:  2.43831425073 Dipole_moment: 2.203
 S          -0.92490486184993   -1.46440336709853   -0.83141395748664
O          -1.65553169110954   -0.65348663409312    0.14107723093735
O           0.45774371718896   -1.63221697757718   -0.42826330796314
O          -1.10085033573799   -0.99729465045002   -2.18673385919666
O          -1.57622287466401   -2.90583016239946   -0.78401180069479
H          -2.24228645541953   -2.81089573070796   -1.45512697192323
H          -0.32293449173376    0.40327149849597   -2.53362939569415
O           0.11947157376327    1.27826394057868   -2.63852472265983
H           0.06965597067100    1.49575808322522   -3.57046767138306
O          -1.37089383425830    2.02018219517531   -0.41001419610228
H          -0.90477611574369    1.99513892304409   -1.26021331048523
H          -1.64601717871915    1.10327511068927   -0.24291238380303
O           0.66667994444077    2.12184719257144    1.29820479424329
H           1.30081793580588    1.70701341081522    0.66942369462771
H          -0.11646069917316    2.32917098271562    0.73601266868641
O           1.72503678724004   -1.82457431578490    1.89302071735036
H           1.30425152074200   -1.97502104132749    1.02140681566532
H           2.56822794579199   -1.40740275247135    1.69972431255324
O           1.88688551873781    0.66110114906334   -0.57848618424043
H           1.46080668068118   -0.21371779197783   -0.53656696873733
H           1.52739475681317    1.06200034862366   -1.38308290445626
N          -0.25496851075802   -0.06579968065314    2.30904958249318
H           0.14745602060871    0.90560338869742    2.01415841277787
H          -0.88931867654343   -0.35785197627459    1.52229233774515
H           0.53233165367056   -0.75632774673021    2.34965118879629
H          -0.76159433043178   -0.01780338614238    3.18542585894222
