    26
        -50.46282840  Gyration_radius:  2.50864977253 Dipole_moment: 5.058
 S           1.79245053008299   -1.13114371574258   -0.04417485987149
O           1.82360772751371   -0.79319167364603   -1.46694076385853
O           0.42761776776299   -1.34786684079273    0.40518292956378
O           2.53245266436264   -0.18760034458025    0.76063001083945
O           2.53680957538866   -2.52100378394102    0.10744073447171
H           3.43770234445273   -2.22536450481722    0.18145250876542
H           1.59606343730738    0.92586103313315    1.61303657580180
O          -0.75085520603381    2.12465657885293    0.20770254437460
H          -0.92496328477570    3.05747454203572    0.33734537105221
O           0.87520440744847    1.42748692187321    2.04875565757789
H          -0.09496875548447    1.86369718174324    0.94098524359026
H           0.41380248831361    0.75470249059056    2.58831638276273
O          -2.20279733979539   -0.66550912142156   -2.32048673018732
H          -2.01237629131676   -1.59143538129885   -2.48084998391256
H          -2.35884109356390   -0.58606977470820   -1.34236642011613
O          -0.39636641961409   -0.81085549150687    2.91094587303211
H           0.00070166155242   -1.17242733633936    2.09603761403128
H          -1.34546333167337   -0.82727326644842    2.76292664760148
O          -2.06775304284432   -0.34180793856807    0.28314794427392
H          -1.84465002459307    0.59605772897782    0.37984253540124
H          -1.21188915775359   -0.80694817989901    0.34622316430337
N          -0.04341005948951    0.87081655799901   -2.07743932958314
H           0.22117302175926    1.46573937195087   -2.85509123665650
H          -0.89498036950994    0.28987802555645   -2.31476141636767
H           0.75795956607082    0.19174270829870   -1.83952874921026
H          -0.26623085559236    1.44038419277149   -1.22833223775433
