    26
        -50.47057775  Gyration_radius:  2.49101404275 Dipole_moment: 4.145
 S          -0.92477874125604    0.04080667980847   -1.36205579412030
O          -1.16345900684163    0.29629406600551    0.07480290821529
O          -1.15903683860348   -1.34466854846437   -1.67681620232040
O           0.41918200174977    0.48538961576196   -1.71947803838860
O          -1.94829624801854    0.91983775287294   -2.13668362656674
H          -1.61319218533780    1.83330360275444   -1.99265740233202
H           1.37717363907436   -0.86878774545136   -1.49446566351018
O           1.69633452376171   -1.73739560718725   -1.16227930911574
H           1.10897043972854   -2.38103728330615   -1.56925616864047
O           1.78033321508764    0.84184249695859    2.43019332486577
H           2.62065361848425    1.11442317504745    2.05748610821626
H           1.11295883632703    1.47213471209037    2.08254550701602
O          -0.43326142417311    2.98100746642645   -1.47587872733523
H          -0.33619655826219    3.12140015336240   -0.52342902493008
H           0.19322902482789    2.26746724529855   -1.68854405386455
O          -0.18510943802788    2.35466466380835    1.30514674706715
H          -0.58323811912367    1.58290087695762    0.82331912352987
H          -0.85441204837238    2.65063387419090    1.92502273694846
O          -1.11927186073380   -3.12088499676143    0.35127096222785
H          -1.18575454893892   -2.49406783210884   -0.39687139417986
H          -1.83296354135370   -3.74667049575500    0.22257916067488
N           0.62257950675620   -1.26741377139464    1.21819737158938
H           1.19175891362512   -1.54284745238971    0.36910803899939
H           0.22581635346311   -2.10878997138175    1.63474882687565
H           1.16545776592503   -0.65904807333006    1.86641833525777
H          -0.17547730976553   -0.69049460381812    0.83757625381736
