    26
        -50.47039538  Gyration_radius:  2.41532999045 Dipole_moment: 4.747
 S          -0.15992852835302   -1.96864537611991   -0.47652258409080
O          -1.44591533536427   -1.35205173145716   -0.68607042191083
O           0.27980373257792   -1.96504431880958    0.90949250235971
O           0.88159262914738   -1.42227574594829   -1.35077803566403
O          -0.32313119129339   -3.48700832529525   -0.89200046903591
H           0.52424673912608   -3.85565869538750   -0.66731839025911
H           0.11417218091682   -0.25132296428869   -2.30849452131493
O          -0.60416185504807    0.35572751228487   -2.58097124553730
H          -1.39186454393533   -0.11777528743078   -2.28155872740037
O          -0.47990603012743    2.33562614286585   -0.90170281337919
H          -0.50083101188911    1.59637395862571   -1.57952028743209
H          -0.52793501648200    3.15147045168528   -1.40131335250198
O          -2.37046615872724    0.80537767764168    0.63394938533458
H          -1.91414108743196    1.48819141487527    0.12424065682903
H          -2.22071020643956   -0.02667092835769    0.14785649069449
O          -0.56060736956354    0.06781131423988    2.41852358136298
H          -0.31397947691336   -0.78391259408642    1.99882107912173
H          -1.39185212098921    0.34013021177521    1.96185830278284
O           2.55506612625284   -0.54582641475639    0.43492258064166
H           2.07860820867815   -0.82846957071555   -0.37942321431259
H           2.20276154209852   -1.15325621945533    1.09828839624538
N           1.12974578602360    1.55521492871377    1.15484162134289
H           1.59883633143547    2.29085518735768    1.67063684137580
H           1.81786555266484    0.82031614362344    0.81464965198136
H           0.42544090977628    1.00751290313183    1.78640382862865
H           0.59729020386182    1.94331034529536    0.35118916414153
