    26
        -50.46585996  Gyration_radius:  2.59279871809 Dipole_moment: 7.216
 S           0.83250533190628   -0.81064997628999    0.20426058247605
O           1.73610642288095   -1.90729748474148    0.42279910432776
O          -0.57515784719533   -1.18136866310604    0.34027853161246
O           1.00539051717435   -0.30357422415763   -1.27926471622747
O           1.14452504675350    0.36575059448647    1.01705039046319
H           1.27047129716505    1.66391815368384    0.02231343581715
H           0.58741750068476   -1.06179408274494   -1.77262875092906
O           1.07696221613235    2.39695205717479   -0.61280231804159
H           1.08262207972515    1.95726400610785   -1.46815706745285
O          -0.25878068430360   -2.39687560411043   -2.05094747245616
H          -0.72943483693781   -2.26081684155686   -1.21472551066972
H           0.34908727397708   -3.14784312626206   -1.87950006630890
O          -0.30912816225314    1.59518805662112    2.79505348573113
H           0.20829190503255    0.99448286599947    2.20232096294841
H           0.33063733490707    1.95719839119775    3.41055170056058
O          -2.43343752881174    0.49014692695743   -0.24995787785064
H          -3.19638914438714    0.13244659264114    0.20757267267538
H          -1.69375646536452   -0.15540639135335   -0.06106168095064
O           1.59041369103355   -4.06876160205240   -1.07165407693961
H           1.67345485708720   -3.35355693031334   -0.40082250964946
H           2.46994335936469   -4.19053564649600   -1.43269547321280
N          -1.25270438023787    2.69161477032554    0.57316918319396
H          -1.83074450910756    1.87837712116645    0.20821954455759
H          -0.35517986671955    2.71587899346635    0.00144633265232
H          -1.75722634531110    3.56969645076391    0.53709914022153
H          -0.96588906317647    2.42956560258483    1.55208243343350
