    26
        -50.47163768  Gyration_radius:  2.3710328617 Dipole_moment: 7.013
 S          -0.01188595954261    1.53642125607608   -0.08038022647349
O          -0.31264052710522    1.83930277823603   -1.47211445394821
O           1.12012998286742    0.60904288830132    0.01653593347037
O          -1.18135170407578    0.95725850588184    0.58915558322668
O           0.36809309234179    2.84255206112001    0.63045752462397
H           0.87516302205250    2.53276215045104    1.44304772651700
H          -1.87050316293299   -0.28873071799931   -0.10806511018877
O          -2.19135633127588   -1.10745288717075   -0.57848876696331
H          -3.13877623939281   -1.13735079796573   -0.43719708622207
O           0.28627460148558   -1.85323319243773    0.71973157496907
H           0.57416476195029   -0.93338688742841    0.55757053789917
H          -0.62584960551713   -1.89995256418571    0.41106272250821
O          -0.31247884005555   -0.06697467600605    2.90851712673037
H          -0.79567753952443    0.34643917867881    2.16757733853105
H          -0.03320233079605   -0.93136991426577    2.57787872910442
O           1.73980553908475   -1.41444932221655   -1.65047903345476
H           1.84752993377028   -0.58501671758622   -1.14759209241121
H           1.50252581772761   -2.06308244645200   -0.97034827862940
O           1.66090778086768    1.66883624767639    2.50213663215107
H           2.12832637249705    1.13083853159465    1.85306242597683
H           0.97183148415149    1.07252556336914    2.88331814616899
N          -0.53018913016287   -0.46718460691157   -2.59671025890422
H           0.39214733221528   -0.94864431919723   -2.36510296326493
H          -0.74276489102813   -0.50342054474795   -3.58774379015250
H          -1.28704127498006   -0.88425300711647   -2.01704707894303
H          -0.43318216458823    0.54852342027590   -2.24878288230265
