    26
        -50.45839478  Gyration_radius:  2.61842072575 Dipole_moment: 3.940
 S          -0.16212203007915   -2.56030242767568   -0.13593073445121
O          -0.01751744791950   -2.18289301456547    1.25257180135563
O           0.77634897828701   -1.86484708659831   -1.00577010842230
O          -1.53138888532437   -2.44411263460101   -0.61610101474763
O           0.20801190961243   -4.10235408946998   -0.22396703233260
H           0.04009163081208   -4.30833864907868   -1.13844109012823
H          -1.94873140961380   -1.06364236650901   -0.04195460489363
O          -2.18701186119239   -0.15622763279257    0.30734459239684
H          -3.01281051032787   -0.28145407247913    0.77841288887821
O           0.01297592383190    3.45780650699166    0.40095054814334
H          -0.73455714900838    3.66822097765873   -0.16196878655870
H           0.71391603136910    3.11289871161720   -0.19831304681670
O           1.55574832867853    2.04756669486223   -1.20353834109488
H           2.13144177032061    2.17464545332002   -1.95721373598110
H           0.86103343905365    1.40445989095142   -1.48878121084410
O          -0.35439329198169    0.34899246280016   -1.87954236594263
H           0.06369724361896   -0.51662730179593   -1.67600595628496
H          -1.18275093511746    0.35064903821582   -1.38949392109911
O           1.93116509293074   -0.48495103789544    1.07704646228884
H           2.08002991624844   -0.55758421747732    0.12678198437041
H           1.34534421351131   -1.25364657948820    1.27311898997971
N          -0.12577570376492    1.05441210376903    1.59160119534721
H           0.78541879077084    0.53555723757199    1.35373509941840
H          -0.91370195399516    0.53111216490406    1.14210303100838
H          -0.24237195579591    1.05568375277935    2.59943681298558
H          -0.09209012492228    2.03497610497930    1.21391852341037
