    26
        -50.46355457  Gyration_radius:  2.70107929495 Dipole_moment: 3.452
 S          -1.59402485214563   -1.75747026933630   -0.37854677338969
O          -2.50084959886452   -0.99955664598750   -1.19861129822422
O          -1.09691361697035   -0.97897460027551    0.76399247903145
O          -0.48354475221827   -2.34841603733443   -1.10960430627743
O          -2.40526977316606   -2.97021331793609    0.23267615349958
H          -1.70840633242179   -3.53612302122667    0.54975821331565
H           0.70299716906505   -1.36151777064757   -1.47626798507619
O           1.41489633325520   -0.68244076918481   -1.63176943925134
H           1.79024409327686   -0.88785038172087   -2.48881229732146
O          -2.34478878762153    1.53820581752911   -1.90405241708774
H          -2.55973241955408    1.58417732572288   -2.83658302109480
H          -2.54521042863075    0.61570969048532   -1.62729235473988
O           1.18757945848851    2.83499417060039    1.25087504864655
H           1.96826395824241    3.32120161382089    0.98288305306562
H           1.50410223696317    2.13083284379811    1.87066216488132
O           2.03075742530616    0.81024350223543    2.72401204056835
H           1.54182412875163    0.63586371435566    3.52942443427529
H           1.92492601168527    0.00055410167719    2.16723628907130
O           1.51939909432671   -1.30511575686531    1.19417776809080
H           0.54394165130116   -1.28514247325092    1.12238979611972
H           1.84159264507269   -1.21016835099781    0.29037848926405
N          -0.13906387818545    1.19349236944692   -0.40921853134626
H           0.56731254893627    0.70433066050070   -0.98666624610457
H          -0.89285312046744    1.57822352492069   -1.01199602104808
H          -0.58032839514101    0.45168640992384    0.18929887291823
H           0.31314919075048    1.92347366974772    0.19165586822564
