    26
        -50.46530423  Gyration_radius:  2.53570463843 Dipole_moment: 5.126
 S           1.06286338503166   -0.55613662511846   -1.11603405597131
O          -0.10073844496922   -1.29966551361973   -1.57611030537174
O           1.63480079377620   -1.11167277335572    0.10162255938042
O           0.73983910752330    0.86073193757831   -0.95156526903556
O           2.12831285218219   -0.66667756545738   -2.24964510684554
H           2.92904896589866   -0.31361288430983   -1.81345683724749
H          -0.69863498707612    1.60987648291766   -1.00407897358828
O          -1.61580902561300    1.98432690380898   -0.99698636317151
H          -1.68527158286949    2.51876416093285   -1.78918923331384
O           0.13793555329095   -0.55345938472685    2.26637604190765
H           0.22769152111118    0.41884682491967    2.21971551403586
H           0.70657523648743   -0.88160970653527    1.54421590957225
O           0.37976891046659    2.01960670353518    1.46049241310164
H           0.71008843002716    1.66604541152862    0.61389339235682
H          -0.45089218988128    2.45288277255789    1.24948280965435
O          -2.30660531544167   -1.28634109578335    1.86094875124338
H          -2.30149157326853   -2.22589835677113    2.04998483553931
H          -1.38141187478362   -0.96666068847509    2.09081753697459
O           3.92611462990453    0.01376459789337   -0.44689492741045
H           3.15991775918015   -0.35696596813307    0.03785654816786
H           4.67322534804445   -0.55700874181173   -0.25374783217504
N          -2.40551594601937   -0.55699892546288   -0.66444757760646
H          -3.19819378226838   -0.91603743556559   -1.18485005700400
H          -2.44900074182464   -0.84851977306466    0.35928754443092
H          -1.48494968447856   -0.92934668258132   -1.06636962094050
H          -2.33766734443818    0.48176634522300   -0.74131769656695
