    26
        -50.46849646  Gyration_radius:  2.53504438902 Dipole_moment: 2.752
 S          -0.64132276553017   -0.86758151021512   -1.68295848101136
O          -1.78433264152627   -0.16894346109483   -2.20789982952239
O          -0.78946349144681   -1.33388767907607   -0.31634020565893
O           0.60771784227548   -0.11832193860299   -1.84274490795423
O          -0.47380825845545   -2.18531767731827   -2.55993687958820
H          -0.86092868615305   -1.95393743422836   -3.39860707924897
H           0.68008267620901    1.34689594525956   -1.16258663692487
O           0.69059981555548    2.16032103707959   -0.59883043021589
H           1.34083175505502    2.74913466447084   -0.98415452921916
O          -2.09509645694705    1.69910186253719   -0.28293157472189
H          -2.14644924214834    1.02313970477591   -0.98301918556147
H          -1.26675816179465    2.16961114636914   -0.43858251753129
O          -2.17284365720113    1.07076943791789    2.32344459154017
H          -2.28675566731172    1.39174038187413    1.39971118389299
H          -2.79710166972697    0.35064683694441    2.42586562201331
O           2.48717669521242   -1.01765620037800    1.96935162755188
H           3.42097591202940   -0.81338425643430    2.02400198770351
H           2.35075805359099   -1.45923246097911    1.09787717327810
O           1.90490377899950   -1.99665716113401   -0.45760228493187
H           1.11381623920489   -2.53145570125807   -0.34162170347687
H           1.61147788252684   -1.27111230511272   -1.03980502459806
N           0.23653213957575    0.36009372063235    1.43831685768137
H          -0.15524481454896   -0.35647350465825    0.77017134257936
H           0.52070027026800    1.17618430487697    0.87392337457937
H          -0.55500026725749    0.63331720569964    2.06319912786534
H           1.05953273954455   -0.05699495802758    1.91175839149377
