    26
        -50.46804938  Gyration_radius:  2.48238866517 Dipole_moment: 3.271
 S          -1.13605796994437   -1.91722869374454   -0.41508119378557
O          -2.35048379815996   -1.10653836609471   -0.36354524644995
O          -0.64555735699669   -2.33277288442655    0.86805645369717
O          -0.11106678816016   -1.24609997622984   -1.21948807700191
O          -1.54306077146368   -3.22215347279977   -1.21631989742058
H          -2.14341412292234   -2.86057057958784   -1.85908265606167
H           1.38777275038583   -1.10283145927451   -0.57486300755283
O           2.28294603580989   -0.93377330705382   -0.19132884689801
H           2.87093957659857   -1.57764687816441   -0.58742048965930
O          -0.01358778882931    1.30277821281326   -2.10607847096536
H           0.00922143283420    0.33048640565593   -2.02725694492532
H           0.79046531533660    1.61104448506048   -1.62405776519544
O           0.08804349209293    1.65810598602712    1.85738966451956
H           0.01983050453511    2.07294577825786    2.71778733276300
H           0.41792653296825    0.72006487436734    2.03008166126822
O           1.90867703391419    1.80496664238349   -0.33056609939755
H           2.24704431394921    0.89604777407528   -0.27730569602058
H           1.38943825361351    1.93475506103852    0.47550553883523
O           0.97713731819675   -0.73307615962008    2.21334381476079
H           1.70082426032870   -0.80766136915130    1.57042770378176
H           0.31440777062668   -1.37557830463728    1.88441763550945
N          -1.71359732875100    1.39981108094590   -0.15079015756849
H          -2.49805499691235    2.04139544908529   -0.17251098209506
H          -1.07864749884954    1.50509494111051   -1.02029990158773
H          -1.12388889412237    1.55015665582817    0.69452227542762
H          -2.04725728608271    0.38827808413853   -0.17553665797781
