    26
        -50.46783678  Gyration_radius:  2.42028923842 Dipole_moment: 5.691
 S           1.20038161299013   -0.74967831425274    0.94585375540882
O           1.76791607656957   -1.63055211780307    1.92656147834953
O           1.15158181249971    0.64788254286223    1.36344500562269
O          -0.34888916349516   -1.16785731613635    0.77751149056839
O           1.72969580758399   -0.87892533512849   -0.40241551661516
H           1.63735983461133    0.63295332569323   -1.02541629516932
H          -0.63007043788570   -1.17195451317396    1.70807444574514
O           1.44913402141359    1.57979802284404   -1.23229016196551
H           1.65548042496567    2.02494423176929   -0.40372507453064
O          -1.65260116816781   -1.07200912993748   -1.67376934996713
H          -1.40713744782852   -1.36023983645957   -0.78228753850857
H          -0.91650442832288   -1.39911301079107   -2.23424216235007
O           0.70569176612122   -1.78243387882462   -2.69038528634458
H           1.28125528469797   -1.40911307350189   -3.35961894448130
H           1.13259328107854   -1.58851526587472   -1.83123045267440
O          -0.22530257842048   -0.78292805941181    3.39854023922670
H           0.04810402856934    0.09909150151975    3.66461678281590
H           0.60440902410178   -1.23183987184151    3.13371163573662
O          -1.25332787436324    1.62925566672092    1.42060398468113
H          -0.31060072302961    1.32230026279315    1.45956308443466
H          -1.75117204656486    1.01898564627619    1.96858875999234
N          -1.19240919320788    1.47250989293758   -1.24394569662706
H          -1.45121059849560    0.46611817087160   -1.50608999983719
H          -0.13948724700183    1.58050981409349   -1.35681667062205
H          -1.69792667836211    2.14818977847172   -1.80581756975403
H          -1.38696338009309    1.60262086632311   -0.21901995310677
