    26
        -50.47356261  Gyration_radius:  2.43510967719 Dipole_moment: 2.301
 S          -1.66036569220801   -0.58390243539156    1.28947038309073
O          -1.79605790901567    0.80461627079087    0.91765252608510
O          -0.26245129353971   -0.97911186702580    1.44320078888128
O          -2.38467319568995   -1.49892409755995    0.43028142354362
O          -2.31856640602254   -0.72703090662518    2.72563938435119
H          -2.48553402127465   -1.66283963307282    2.75597994944698
H          -1.77968850775504   -0.98158994043362   -0.95370934932602
O          -1.34502473920459   -0.73037368477608   -1.80684041586827
H          -2.04644062105155   -0.71199491846420   -2.46068800938268
O           0.04381901383010    2.55471068948845    0.49399425675951
H          -0.67321276470884    1.89365884310256    0.68602883036162
H          -0.33318805115546    3.41347740962731    0.68953032754290
O           1.77667421745408    0.72251530510273    1.58615512845492
H           1.31697581244553    1.54712852557872    1.35588659640499
H           1.05594094899955    0.06874712198392    1.71212996749293
O           0.70403718661574   -2.25654533799839   -0.67262694118541
H           0.01817052231867   -2.01677202556148   -1.31219909499314
H           0.34053786861462   -1.95969419167730    0.18951316552292
O           0.46098391908715    1.34587789219916   -1.92743487397485
H          -0.25318037894902    0.68134541686103   -1.93205904269533
H           0.28191320260794    1.91853259176807   -1.15853557420009
N           2.30687683307269   -0.17104832089195   -0.82589476922452
H           3.25219666515386   -0.23451313737529   -1.18308279449191
H           1.81168039094940   -1.11117485304846   -0.82021336716616
H           2.27348223655210    0.19185486547165    0.17694532553617
H           1.69509475287161    0.48305041793116   -1.39912382096697
