    26
        -50.46267332  Gyration_radius:  2.51769045483 Dipole_moment: 5.923
 S          -2.20642257062752   -0.69604089347242    0.16958546988882
O          -1.32229995493299   -0.62254952162228    1.32959103124083
O          -2.08220860768151   -1.93215925370658   -0.56683659049682
O          -2.06700269473413    0.49450311982864   -0.65187381600799
O          -3.68935532694864   -0.69519928369119    0.73221139173890
H          -3.92839874952954   -1.59295129615495    0.53083709023454
H          -0.87369890764497    0.67263470421417   -1.59886113836600
O          -0.05939850211096    0.83423811039018   -2.16617685307201
H          -0.38264950827975    1.25746358643135   -2.96305143828384
O           0.40122748811668   -1.91156804699029   -1.55905980511224
H          -0.52511840700276   -2.07235090835703   -1.29164321463061
H           0.40029062489259   -1.03209142495348   -1.95763391178928
O          -0.41907727717084    1.72100686695620    1.91135103477256
H          -0.88347903871371    0.87744449810864    1.66468434210661
H          -0.01444824010248    1.54288359745316    2.76342971148447
O           2.99175967237114    0.02461794920458    0.67650651613639
H           3.56028395101622   -0.41389116666550    0.04137549021425
H           2.30138733436650   -0.66451610156151    0.92841967485099
O           1.12261509527431   -1.71805594696132    1.01785917633459
H           0.24917060135918   -1.38056125614392    1.28849915535141
H           0.99064337044408   -1.97704017796499    0.08076149129693
N           1.29680263365476    1.87746992070265   -0.08805862416210
H           0.81334712088866    1.54454587270454   -0.95437203442736
H           0.58664248452775    1.88232678747179    0.70660409220514
H           2.05433470817779    1.17530321919921    0.17767672539354
H           1.68505269041023    2.80453704555107   -0.22182497689569
