    26
        -50.47356151  Gyration_radius:  2.43480175234 Dipole_moment: 2.289
 S           0.24351542742973   -0.20271732428294    2.15698730197965
O          -1.12094553930267    0.15617715374705    1.84978854285825
O           1.19404399090843    0.40402373323031    1.22879370270008
O           0.46248051472352   -1.62874300359388    2.29407866284747
O           0.55908265925406    0.41979809449491    3.58172965110928
H           1.28524142856322   -0.12707581006081    3.86092032102481
H          -0.18041265881050   -2.05106752824178    0.89436607947146
O          -0.49492464457856   -2.31449678341365   -0.00638461049694
H          -1.00874071083323   -3.11424235241556    0.12104202092610
O           2.00407742593967   -1.25440856067775   -0.67775976434508
H           1.31796054256510   -1.93040894480342   -0.58257150622532
H           1.87836387924112   -0.67507394294822    0.10467217188448
O          -2.01133276521557    1.65087268569268   -0.04764030646258
H          -1.67322308823519    1.09851270952342    0.70646182653639
H          -2.83568767610603    2.03235083669556    0.25697266910404
O          -1.58427830754449   -0.46528851963608   -1.73292273398579
H          -1.30380841763824   -1.15467544741255   -1.10220370944785
H          -1.90071755115239    0.27783945092118   -1.18633232490073
O           0.60792001858398    2.37090445221670   -0.46326164149070
H           0.91749990463660    1.77560385450247    0.25254090099334
H          -0.35806790752718    2.39101962350234   -0.35903430169667
N           0.81342414141147    0.47516104822362   -2.26943521579313
H           1.13394179318397    0.65928833781929   -3.21210318437890
H          -0.17786716016408    0.09134792967866   -2.24116773671627
H           1.42137282800167   -0.23644452566132   -1.76635301378883
H           0.81108187266609    1.35174281289710   -1.66118380170642
