    26
        -50.46272414  Gyration_radius:  2.49484867736 Dipole_moment: 3.797
 S           1.13338964921880   -1.39441084641651    0.50923461145712
O          -0.23622560675445   -1.80506951656839    0.72597393042871
O           1.45285453813453   -0.15827491566608    1.22510217382557
O           1.50794917451283   -1.31257445709947   -0.88475817908258
O           2.04126755578917   -2.52246454476300    1.15279742411073
H           2.89805313400341   -2.34250310533853    0.77874099895513
H           0.04578015062833   -0.98441687549927   -1.51784954023029
O          -0.86249423977046   -0.75058613912104   -1.82108649002183
H          -1.41858874601110   -1.43939157567537   -1.45172526145692
O           0.80633672917912    1.04883354141035   -3.35046673286218
H           0.29037264205632    0.27218804977510   -3.10316371919277
H           0.17434083252181    1.74198885720058   -3.55301541522412
O          -1.19478694718393    1.66310398739948   -0.61017762655551
H          -1.25628964531120    0.80916054393023   -1.08405915489521
H          -0.24554377121194    1.92347979892463   -0.72818895047221
O           1.43180239158463    1.79092453520002   -0.75662190847586
H           1.53711279458918    1.45334718513769   -1.66387199087260
H           1.64160962070577    1.05856304604651   -0.15730038912136
O          -1.94990973281520   -1.20479124959728    2.62108277853380
H          -2.79330860747709   -1.57931889201376    2.36195343492090
H          -1.28422916353102   -1.57402463564998    1.99557251085956
N          -0.75957364389815    1.08107351463265    1.88750271599698
H          -1.08349448334103    1.37325028094737    0.90078540911778
H           0.18433790470546    0.62582164590929    1.73546725511817
H          -0.67760274362348    1.88129158157831    2.50474385344186
H          -1.38315979669554    0.34480017537503    2.28332825171710
