    26
        -50.46839072  Gyration_radius:  2.50354002553 Dipole_moment: 6.710
 S          -0.73007474826205   -0.96531167488677    0.17996106690374
O           0.18548061614173   -1.11513435027846   -0.95514305642645
O          -1.77228923547368   -2.10822574530133    0.10859291978326
O          -0.01424211754491   -1.11384654806720    1.43641416096260
O          -1.44038942673886    0.30823593702763    0.10027929901468
O          -1.09370808291524   -0.94448322505352   -3.26136654457902
H          -0.85845681489911   -1.73882865312755   -3.74352409456419
H          -0.53627187985044   -0.94461723578471   -2.45220446893716
O           2.46308306794757   -1.01009565440320    0.27836221183825
H           1.71284294636553   -1.07824333701711   -0.36179983406234
H           2.10709029563629   -1.46181857994147    1.05259265720339
O           0.53064561414157    0.86480080414271    3.02703771288893
H           0.18149584316779    0.14006500017932    2.44658088810918
H           0.66728704973554    0.46349225673161    3.88665835618163
O           0.11162376810619    2.28657570687967   -0.50960837552291
H          -0.48100482912242    1.50323110614085   -0.35711548750856
H          -0.40523929702882    3.04817621900276   -0.23921111825831
O          -3.19511289123915   -0.81545551505305   -1.59652302090616
H          -2.43662080389133   -1.77165429195238   -0.55836226334027
H          -2.87776556307414   -0.05931698132539   -1.07932297810548
H          -2.61054407263524   -0.84456294273962   -2.38319940142616
N           2.12769181488267    1.49343681590281    1.00060290766927
H           2.37619037415028    0.50890721089252    0.65708255073235
H           1.64029663817600    1.37494029437397    1.92229509063059
H           2.94485632755655    2.08968461713084    1.06598624363919
H           1.40313540666378    1.89004877652273    0.33493456808192
