    26
        -50.46430626  Gyration_radius:  2.4987901814 Dipole_moment: 4.504
 S           1.92002407197715    0.64866323070765    0.27988938411613
O           2.94384935763169    1.15929017744155   -0.58072661744979
O           1.70959667161009   -0.78517446073778    0.20247408408363
O           0.64418028801452    1.36964101374317    0.23494957258433
O           2.44628331800372    0.92082900135911    1.78494552084395
H           3.36114278120324    1.15085297981722    1.65299280236945
H           0.03683587905526    1.04851970858220    1.75965655450316
O          -0.30743265506104    0.68505527271429    2.60462378148612
H           0.43281369699909    0.74686889452485    3.21161858969068
O          -2.34119429627344   -1.20767044131799   -0.62529589512694
H          -1.82201185197509   -1.34697003571059   -1.44935140536687
H          -2.42043297291001   -0.23583379701060   -0.52700999044239
O           0.94115597119695    0.71676477478327   -2.39614896443747
H           1.89776703079457    0.70214409168320   -2.27997839545339
H           0.61912019899456    1.15229887292159   -1.59643567307391
O          -2.07927508791381    1.40896191902243   -0.03597677947374
H          -1.11145748250312    1.48584095800252   -0.04989759384201
H          -2.34374575927534    1.63686975591624    0.85768437096066
O          -0.71525085209299   -1.39147580807191   -2.73806099029438
H          -0.03897661834421   -0.69679205714499   -2.59739826656776
H          -1.06858954130404   -1.23668115090107   -3.61546095552927
N          -0.54912701810683   -1.61192983788238    1.19822097908092
H           0.37573431522740   -1.38864756318446    0.72552179793844
H          -1.33827785542259   -1.51907535085432    0.45370961828928
H          -0.53121230825880   -2.54004232801175    1.60496739513785
H          -0.66151925139581   -0.87230782035646    1.92048709573859
