    26
        -50.47225093  Gyration_radius:  2.3956401025 Dipole_moment: 5.713
 S           0.90519550314791    1.35021799997212   -0.43218884924444
O           0.89142141790995    1.38627594220251   -1.88220480481885
O           1.70228000176627    0.24899308073125    0.08717518886763
O          -0.47520927023827    1.27540987426272    0.08383969781849
O           1.50325911622644    2.68075159017047    0.09314174897674
H           1.68718064349308    2.47376837940630    1.04308409835473
H          -1.60508764756031    0.40428900827942   -0.63522590916219
O          -2.25951084292074   -0.20834218829317   -1.06560880882597
H          -3.04269017644289    0.31680276996666   -1.23582773445123
O          -1.19635698541866   -1.94506720516965    0.97860776740087
H          -0.95300665075972   -1.29354119811151    1.65623891951855
H          -1.75928598950151   -1.47846502721240    0.34716736802694
O           1.86736896595080    1.52040084731331    2.40835499230610
H           2.15132740241688    0.82266560639141    1.79582243823726
H           1.02953760617830    1.18854043092038    2.77063180776870
O          -0.67186889982987    0.37336473939405    2.50754235369630
H          -0.60467352454928    0.74318803242373    1.59140261100040
H          -1.42966841467247    0.79455937806710    2.91667907615868
O           0.98786389535480   -2.21929323059282   -0.54128373823882
H           0.22893715753041   -2.32502814760778    0.07871963401998
H           1.44443677141640   -1.40985633014221   -0.22836798791638
N          -0.08741219118606   -0.95319984378412   -2.50608908692692
H           0.37400144470012   -0.00241887059114   -2.39214409978181
H          -1.07405074133019   -0.83257162341692   -2.21687691529315
H          -0.00366396273496   -1.30231409650944   -3.45421489703164
H           0.38967536104919   -1.60912989807327   -1.76837487046013
