    26
        -50.47298106  Gyration_radius:  2.37650474321 Dipole_moment: 5.767
 S          -1.37819278306641    0.22628807194968   -0.38058868901819
O          -0.19096024526654   -0.20069458801916   -1.34694748906955
O          -0.72357243714887    0.87771721255954    0.76592293429421
O          -2.22764167243747    1.13158985863430   -1.10875062504716
O          -1.97759645767351   -1.03760237753219   -0.00302019460379
O          -0.27615659618174   -2.86877886542570   -0.75995155033424
H          -0.03081431147975   -2.55197919285050   -1.63273238845659
H          -1.02247905500919   -2.27615831347310   -0.49093703332447
O           1.89079749162385    0.60438256820262    0.60946866372614
H           0.94335816943620    0.82462152044245    0.75984331791732
H           2.10651660247930    1.02341044354786   -0.23045650082608
O          -0.86921381928023   -1.09514413288639    2.48514927705650
H          -1.59694420166655   -1.54276908770673    2.03607018659722
H          -0.83886373742057   -0.22544521390411    2.02641330700966
O          -0.82518171029248    3.27601904525763   -0.63185311904624
H          -0.72472737193565    3.17224495639530    0.31889980158246
H          -1.48571498419682    2.58544618090043   -0.87914968065140
O           1.14251257243423    2.02212953359370   -1.77640652464910
H           1.17642301042438    2.30390152089509   -2.69228538531853
H           0.47104166758419    2.61827333893499   -1.33283010612757
H           0.30440078123779    0.62246741427872   -1.56983122031869
N           1.25820251598327   -1.91706469375778    1.16976526020566
H           0.77594502016119   -2.37972161432761    0.34409355285894
H           1.94948936440227   -2.52316019169711    1.59701241980200
H           1.67778042357116   -0.99691240784185    0.87305240223727
H           0.47159173373570   -1.67306098617848    1.85004937350596
