    26
        -50.46237380  Gyration_radius:  2.52548545611 Dipole_moment: 3.382
 S           1.40730536697365   -1.10979810329253   -1.01270703475299
O           0.52354989145465   -1.40941931684428   -2.13393434329715
O           0.79974593602474   -1.40637793787003    0.26789657851043
O           1.91575749747466    0.24985553446959   -1.08932925634169
O           2.64996621445914   -2.07332385844444   -1.15510403629590
H           2.95788225708647   -1.88100556391369   -2.03499751228066
H           0.56430231710194    1.22003210497531   -1.07211038032406
O          -0.22904305946539    1.77245404004869   -0.88264216311028
H           0.12481670996801    2.66401265088618   -0.78500919243439
O          -1.83691494753468   -1.81888499078487    0.73791180359514
H          -2.00829394747491   -1.23621044765532    1.51494313304140
H          -0.86779514772494   -1.91976987517529    0.69770446346192
O          -1.95413908467317   -0.05576658469878    2.73312118683525
H          -1.81920473877786   -0.36008543764487    3.63134611804438
H          -1.10516663766206    0.36317902857976    2.45202531577560
O           2.18094927574256    2.69908743086774    0.30566332746304
H           2.39273193513147    1.91694111543508   -0.22116465343626
H           1.96295514464938    2.36376695482499    1.18098365939667
O           0.33121830701267    0.81927307127337    1.69052294277532
H           0.02400727270332    1.34246560481145    0.93206302346238
H           0.64484910658574   -0.01714304445395    1.29596221771595
N          -1.76374500325107   -0.40890500360084   -1.42528512746956
H          -0.89032687316271   -0.85979351488435   -1.83909326003513
H          -1.50678064422751    0.56444529607785   -1.20565653604784
H          -2.54545500403774   -0.44887377831575   -2.07008124205444
H          -1.95317214465109   -0.97015538446012   -0.51302904218603
