    26
        -50.46510843  Gyration_radius:  2.58134359037 Dipole_moment: 1.322
 S          -0.05305017106048    0.95633189268678   -1.00508965550054
O           0.36497036162974    1.48016170122552    0.28659545377802
O          -1.22604773393927    0.10980210074508   -0.88065028689880
O           1.04241969107181    0.24100008105768   -1.67080889805806
O          -0.41040739585882    2.19028107471205   -1.89088836773799
H          -0.43235005090525    1.84277705616120   -2.80595223196153
H           0.80139719487169   -1.34304609316237   -1.05011794586690
O           0.40375848908835   -2.06650514111063   -0.52366471908178
H          -0.53949535553634   -1.97311636530589   -0.69824911283239
O          -1.36329446784392   -0.93631626575921    3.40066975600630
H          -1.47862414810169   -0.29211234652075    4.10119610253821
H          -1.94056148791245   -0.63406628789429    2.66068639257855
O           0.11026102779317    0.77794458717279   -4.06642251910782
H           0.79207275406635    1.11593175836415   -4.65146269179392
H           0.57147956069479    0.35678309226017   -3.31283289766548
O          -2.68414406147630    0.04053824523357    1.30893897563091
H          -3.53061145128580   -0.27714792245826    0.99069767516399
H          -2.12044805298270    0.13790602051064    0.50726528086347
O           2.92173583215722    0.49252980230694    0.56439163438129
H           3.03819027183279    0.12596952558578   -0.31546291239469
H           2.17883776855961    1.10827638955748    0.47070954248946
N           0.71695188655483   -0.70583298029765    1.74707730299009
H           1.69491526265643   -0.65761198748783    2.03500472596272
H           0.48512538212079    0.21955013056764    1.30104905935504
H           0.61714807771021   -1.41567454201731    0.97184692679509
H           0.03977080610331   -0.89435355616499    2.52547342036728
