    26
        -50.47165515  Gyration_radius:  2.51626756353 Dipole_moment: 0.629
 S           0.44708296920032   -1.37275468889305   -1.41450518628188
O          -0.81561164053610   -0.72486227285300   -1.06182920957279
O           1.17752772051136   -1.80066053446088   -0.24006626294153
O           1.22023280555949   -0.56426347280299   -2.33333638962819
O           0.06214577064625   -2.69559680744745   -2.19289226212637
H          -0.26237633672190   -2.35290373497671   -3.01877694916344
H           1.44716081220980    0.88988420791200   -1.68392733531227
O           1.56299342401898    1.75186302835139   -1.20816908661718
H           2.23299230982726    2.23420833489497   -1.69575960125643
O          -1.20540629904332    1.98376827884945   -1.06966696524606
H          -0.25487050963052    2.17268278080072   -1.10485757860726
H          -1.26092508348261    1.02671495581267   -1.22670993395486
O          -2.15430756735613    2.23170647781858    1.40952945419478
H          -1.89197041951855    3.08843016862227    1.74801897132876
H          -1.92599259962886    2.23144220863153    0.44784898954184
O           1.81815514249785    0.41301336490407    1.16497235258867
H           1.84290419538228    1.05720370673087    0.43565115570609
H           1.86500206120873   -0.45816596062621    0.73169933043709
O          -0.31530983831587   -2.70116486322424    1.81069731832221
H          -0.07334946749266   -3.59676867630755    2.04750522447105
H           0.24666973351188   -2.46067797524105    1.04734230589358
N          -0.77083058601239   -0.06386544928279    1.51170552898451
H          -1.39609055194087    0.74352100985445    1.71510594307190
H          -0.91266747591269   -0.36082917338313    0.51418270585180
H           0.24493817485888    0.21894958377994    1.57352806578615
H          -0.92809672381594   -0.89087450751040    2.09270940457994
