    26
        -50.47611846  Gyration_radius:  2.40932378345 Dipole_moment: 3.949
 S          -0.92272128706041   -0.97679274976682   -1.15816257119258
O          -2.21016167047111   -1.19013511738139   -0.55915580025864
O           0.13984820848813   -1.76819935407720   -0.52202933576564
O          -0.55156942765555    0.44968535953363   -1.12708549793337
O          -0.97470193536944   -1.38485725794516   -2.65555522495990
H          -0.03121937820677   -1.33281508314069   -2.92091064588166
H          -1.04670444702815    1.42350744791703    0.06794281799896
O          -1.24441662921417    2.00302201723301    0.84583170093408
H          -1.78788812085057    2.71906170306082    0.51427937256847
O           1.92849894507117    1.17204259690831   -1.13352543625257
H           1.98073812519838    2.00286984819167   -1.60918707748205
H           0.97633241132370    0.89307481438492   -1.16462601729824
O          -2.19910563679647   -0.33188615028179    1.96552605693052
H          -2.08501200146949    0.61518617573378    1.77906969224200
H          -2.39101781375510   -0.73587413227468    1.09210202792309
O           1.38628259359094    1.41465657616062    1.55990558252412
H           1.77137191834565    1.34892048092778    0.66510613525990
H           0.52953607938432    1.85755004372077    1.44564586677511
O           1.66742804131576   -1.24189110531855   -2.61850795364989
H           1.42214801462860   -1.68931798200455   -1.79161317472908
H           2.04843048100972   -0.39835028596260   -2.33406750536012
N           0.33820274127379   -0.98481611570916    1.95943555216571
H           0.86303291520213   -0.06358586480538    1.91579133538409
H           0.34630245759434   -1.40461947480348    0.98741333921330
H           0.73751084352093   -1.61903544406981    2.64183251076724
H          -0.69114542804653   -0.77740095624972    2.15454425009036
