    26
        -50.47071319  Gyration_radius:  2.41585905238 Dipole_moment: 4.153
 S          -0.78726207927804   -0.75281601240836    1.70973761157862
O          -1.56978839975626    0.39103683912363    1.30794220903471
O           0.58876485651581   -0.44141313824140    2.05810914316428
O          -0.85857989355420   -1.83686694611090    0.72725874745967
O          -1.45794546826232   -1.30971296918275    3.03139861695453
H          -0.79598083731162   -1.90911910692071    3.35849860745938
H          -1.84628750026957   -1.29135660197151   -0.47337326777692
O          -2.38228095793598   -0.71019393693112   -1.06132544625579
H          -2.82525704203431   -0.12589418638718   -0.43552430293919
O           1.94168484877108   -0.14372416133877   -1.61257871171268
H           2.64290601617377   -0.38530792892735   -2.21859132787218
H           1.86091447184234   -0.90404788563736   -0.96448970697571
O          -0.58309649232724    2.52386443822318    0.05360175436588
H          -1.07243553639810    1.90778907070839    0.63560481403139
H           0.35300736306689    2.42861387878184    0.35057398492739
O           1.69337367718400   -2.00021373006808    0.18772171374924
H           0.73212660390233   -2.18282200808747    0.21459396766354
H           1.81633504248877   -1.49102279798195    1.00300369993999
O           1.79028102731159    1.56093038570127    0.70344932954195
H           1.41771090721196    0.89429680873364    1.31219837627164
H           2.05461688605033    1.07707278771638   -0.09025235632057
N          -0.53828583634515    0.93957272940851   -1.99139318947407
H          -0.56798198887559    1.69920894117845   -1.20824988304718
H           0.40002929188398    0.49602980674978   -1.96550528372558
H          -1.28275049103417    0.22528279400280   -1.72875835348824
H          -0.72381849902082    1.34081291987356   -2.90365074655078
