    26
        -50.46572169  Gyration_radius:  2.36739399564 Dipole_moment: 1.769
 S           0.06503627453585   -1.37361410918759    1.22347963721763
O           0.20271679347688   -2.05211906907623   -0.05553422897607
O          -0.87362710457742   -0.26413569849132    1.16199222312188
O           1.33680052790143   -1.01686997208900    1.80785411185418
O          -0.61257700992153   -2.41857332211273    2.21098728675825
H           0.06449271760246   -3.07496536618894    2.34306495920002
H           1.74143687650098   -0.05444153458655    0.42981544714722
O           1.73818931747043    0.71646171075221   -0.16681342290986
H           1.51913268709405    1.45230233532110    0.42955282654994
O          -1.92094352578275   -1.18924684849030   -1.30488681322833
H          -2.44501655525359   -0.89488730199505   -0.55500224192032
H          -1.16853482040505   -1.68103056270872   -0.90554907060051
O           0.57353104449935    1.83193692200981    2.05194465409410
H           1.20709256410986    1.57696808495093    2.72527745111941
H           0.05057378107438    1.02496918491909    1.87752955195276
O           1.45202785896305   -1.08118526069431   -2.34943540255745
H           2.29551954316487   -0.78632103666313   -2.00008553148804
H           1.04228607429496   -1.59471345288898   -1.63695702220031
O          -1.60656490118394    2.21651328544151    0.20577396025779
H          -1.61395878062029    1.33469372793944    0.61381237817687
H          -1.02658488705301    2.73374697852706    0.77436216940429
N          -0.40296454599962    0.93846651010013   -1.80163934315782
H           0.51397319613292    0.71296209743391   -1.33427324856141
H          -0.24235952752384    1.22584452406965   -2.76094101819372
H          -0.99944399064448    0.06151635358454   -1.77038996318950
H          -0.89023359782988    1.65572183015405   -1.21393934986416
