    26
        -50.46861492  Gyration_radius:  2.46032359902 Dipole_moment: 2.071
 S          -0.14661758813444   -2.13739549426421    0.58672155022979
O          -1.31183703231710   -1.49509792225627   -0.02646287158821
O          -0.10174895752270   -1.98322694343067    2.00811232867940
O           1.08440558012845   -1.68588642310784   -0.07138241677053
O          -0.28796452289385   -3.67880808272759    0.25319113303884
H          -0.59045444958579   -3.70309955421202   -0.65039842976344
H           1.48260626858386   -0.49870657450685    1.02188695369876
O           1.53341852682110    0.22322495919519    1.68889028732974
H           1.72091669512067   -0.22727797382455    2.51598081189702
O           1.38820391855643    2.17033248027798   -0.41814045983533
H           1.65596079340534    1.72082048350311    0.39150282204981
H           1.41638211831909    1.49099718710080   -1.11433552522998
O          -1.26526423779019    2.48956940377254   -0.31766631067244
H          -0.29466236061205    2.62626644104838   -0.40389557038738
H          -1.49551278806562    1.88088396185380   -1.05905888858743
O           1.28371022016129   -0.03024554860476   -2.09635648526803
H           2.03712188034971   -0.29906738264774   -2.62374290341441
H           1.20547925581598   -0.68710787683815   -1.36525091469460
O          -1.46742737934189    0.42679765710406   -1.99533703074998
H          -0.55226375780328    0.36541903424166   -2.30402071080276
H          -1.57152474422504   -0.31342740500808   -1.37559469018608
N          -1.16006667792761    0.67543461051406    1.49809422306536
H          -1.39719764798927   -0.20092783723522    0.97638485502196
H          -1.72816661342392    0.75504768380523    2.33420686909230
H          -0.14887736662082    0.59247626206359    1.74149553887878
H          -1.28861910286630    1.52300483420853    0.80517585489278
