    26
        -50.46445007  Gyration_radius:  2.59338205196 Dipole_moment: 6.444
 S          -0.81001825612944   -0.18453140879249   -0.23275002373296
O          -1.42508069753981   -1.50596856700824   -0.29174114518488
O           0.42526460407892   -0.15190280269061   -1.03656898721989
O          -1.78430974118138    0.85567577369994   -0.81987346048824
O          -0.53395640841056    0.20968050188555    1.14047335271398
O           0.38047068382961    3.41984133499331   -2.45049077106317
H           0.56976538581069    3.14145828862581   -1.52980050037121
H           1.21635640176998    3.70886001138536   -2.81970748326057
O           0.97480021196437    2.26145986767162   -0.07708514865800
H           0.93153148436870    1.37214988000098   -0.47666482138839
H           0.33699445781702    2.21909325311285    0.64128349649920
O          -0.98587216803340   -1.20108352752776    3.30965852097041
H          -0.94666369497455   -0.58860667171287    2.53710367552136
H          -0.60074265622444   -0.72432627922987    4.04647955353718
O           1.98949580242160   -1.46010697034280    0.63280479087116
H           1.49753923472734   -1.02550138922696   -0.10118766873008
H           2.21193473535292   -0.74673013689062    1.23583338885293
O          -0.76610532169567    1.07905851156118   -3.14508848822990
H          -0.42315582720431    1.99656119264807   -3.06195320126350
H          -0.07279491217361    0.50474852487876   -2.78825689929572
H          -1.56243261799640    0.96492438693631   -1.79993978404904
N          -0.11649325246801   -2.87334250246099    1.43495432271562
H          -0.43280177738500   -2.46140198277462    2.34080812355738
H          -0.75558126264633   -2.42922386504908    0.68382411759678
H           0.83753030977072   -2.49455706279934    1.20297680751078
H          -0.15567471736507   -3.88622838023920    1.42490822345278
