    26
        -50.47224767  Gyration_radius:  2.48364378626 Dipole_moment: 2.222
 S           1.05330685178197   -1.79360453611124   -0.92155407198641
O           0.46727421660737   -1.60805508119277    0.39851338747510
O           2.03274095099457   -0.76251275677396   -1.21262773212249
O           0.05104048091621   -1.94736673068122   -1.96046265956784
O           1.82780628073507   -3.17735559360903   -0.89589205140959
H           1.29642653912506   -3.68523788848108   -1.49932735717029
H          -0.77562845764793   -0.57726849323376   -2.04826067604722
O          -1.33209801312892    0.24306663907653   -2.04135614051605
H          -1.58372766368533    0.39836315088587   -2.95312211235461
O          -0.53101231754842    2.29684537341285   -0.41393010736543
H          -0.83545096703601    1.63258387824857   -1.06058900691216
H          -0.99911128815270    2.08469346677932    0.41367466247621
O          -1.61462514195142    1.19969301619248    1.86741958416171
H          -2.35122072896725    1.39723173953657    2.44604552249748
H          -1.86858852431758    0.37858856865178    1.35506640842476
O           0.87240280242305    0.13368211770476    2.41352126514661
H           0.76500150921272   -0.66875790013276    1.86821897489356
H          -0.01292314518872    0.54032787236073    2.43385538387099
O          -2.09781678991449   -0.89678301086418    0.39691222422745
H          -1.20954743105157   -1.30851576698453    0.43061442797844
H          -2.16727925134425   -0.54528370171099   -0.50160626818655
N           1.82910638734016    1.35711745476865    0.29741770455972
H           1.59026905078017    0.95762375872082    1.25534477305747
H           1.99288005669178    0.52530365848137   -0.33874855247744
H           0.96103104530300    1.86127068124156   -0.05052662994075
H           2.63974354782407    1.96435008375508    0.32139902756888
