    26
        -50.46550750  Gyration_radius:  2.49856060728 Dipole_moment: 3.930
 S          -1.02156281156836   -1.59988054525511    0.38285108135485
O          -1.66217849612943   -0.44429733183994   -0.25109823505603
O          -0.48879081977914   -1.27526936567473    1.68113291835459
O          -0.06740458925429   -2.22233717117334   -0.51820558750178
O          -2.16365015174690   -2.66756165882857    0.60663768030937
H          -2.29374012009729   -3.00270496766696   -0.27431393959252
H           1.13253356202164   -1.07112185445930   -0.72568007024142
O           1.82799295148750   -0.37781600546710   -0.73738824038940
H           2.62862273758947   -0.85221124053688   -0.48951403405430
O          -0.27810101322806    0.66340934317684   -2.32335686364686
H          -0.86999448882593    0.18228542718865   -1.71754364596723
H           0.61415938920616    0.38457041740111   -2.08042765993385
O          -0.51639664677895    3.16685250257015   -1.53730406481356
H          -0.48332581571808    2.28583567472420   -1.99341157447576
H           0.32905914362378    3.58642638961128   -1.70398470659257
O           2.07031900756277   -2.56142355673108    1.18021532823358
H           1.33718085839883   -2.67934719188001    0.55914734034419
H           1.65324982624380   -2.31979769413019    2.01031096987003
O           1.15330585707517    0.81262221428291    1.60297942165846
H           1.57990368518302    0.53799455425253    0.76500412792202
H           0.65941916709449    0.01454587709736    1.87820097459367
N          -1.04523907568649    1.91474883700595    0.75159605484149
H          -1.44246045640054    1.00587736966889    0.39283432993417
H          -0.88349433771347    2.54626323385917   -0.07577646939160
H          -1.66544111261408    2.33772230402282    1.43244665754066
H          -0.10396624994349    1.63461444877599    1.18464822670837
