    26
        -50.46802610  Gyration_radius:  2.56451226309 Dipole_moment: 2.924
 S          -0.32661778184560   -0.89096702231973    1.90859492130073
O          -1.34839791969294   -1.60834964502798    1.18969879620541
O          -0.41746005179995    0.55515239900359    1.72423108647811
O           1.02088958914706   -1.37617559952608    1.62791841920896
O          -0.58280705428385   -1.16085259477829    3.44825394724464
H           0.15395910384491   -0.75204713838336    3.89410456538933
H           0.88236226706508   -1.61000631085545    0.00626803441889
O           0.65202664001864   -1.62940261681299   -0.95223698330635
H           0.14262763184598   -2.43398436118717   -1.07071204451574
O          -3.27711006639195   -0.70230399465702   -0.41693283443888
H          -2.66097485679498   -1.16246194950734    0.19152029354907
H          -4.05376059677361   -0.49077991970519    0.10257039747210
O           2.28932843316726    0.70965747890069   -1.53195170579691
H           2.44337442461336    0.89168892576479   -0.58012305846702
H           1.97560714075032   -0.20083475313820   -1.56605859005550
O           0.38333623253192    2.35469071588473   -2.33551523372072
H           0.43819852535246    2.47788911429147   -3.28349992028080
H           1.19631425239518    1.85253325946578   -2.07196894034703
O           2.26810757492616    0.95281297793963    1.15786650373446
H           2.04372256084679    0.02909516097308    1.36969689733817
H           1.47015990390122    1.44156135606132    1.38788020465223
N          -0.95140862344875    0.57176826601597   -0.86053410685381
H          -0.37565398456854   -0.27269649805607   -1.07229080150765
H          -0.77777371889028    0.76914433391532    0.15533625189225
H          -0.63711804416907    1.36487911681656   -1.46431981140440
H          -1.95093157175152    0.31998929892730   -0.95779627819466
