    26
        -50.44192945  Gyration_radius:  2.71367549673 Dipole_moment: 4.934
 S           0.48539428186328    0.24602786767445    2.59589268924561
O          -0.03097126821858    1.53658463291060    2.17875831577987
O           1.88722101697602    0.04740182056487    2.38554156379458
O          -0.33660470670118   -0.83617728359324    2.00772098295640
O           0.22368314364909    0.15712027308179    4.15990193235369
H          -0.64697813889184    0.53262160621595    4.25004507736414
H          -1.11047466765745   -0.42405934104496    0.98293112037531
O           0.21876143600004    0.84450959626795   -1.29835044627240
H           0.49145718836145    1.70565825879671   -0.89621361899679
O          -1.65497842240370   -0.11710790568710    0.08126512760525
H          -0.93255298845262    0.38552165624605   -0.48920558796073
H          -1.83658284698244   -0.95991435034083   -0.44611337465629
O          -1.94472008914757   -2.10244468110177   -1.55779538235191
H          -1.45986504602914   -1.67237506085707   -2.30188541502474
H          -2.83181292293947   -2.27822177783037   -1.87516063584609
O           0.85410377565167    2.93913284872078    0.14609992280702
H           0.31454350533986    3.73135033633311    0.16267836106945
H           0.62866073197297    2.44675054572011    0.97008422680244
O          -0.60278553294926   -0.68229729110808   -3.37491688619336
H          -0.32237718273812    0.03554132793974   -2.77526963209226
H           0.19929681146555   -1.03839956764179   -3.76030309238071
N           1.74395151602312   -0.98967087213839   -0.22360624826964
H           0.89191365931117    0.17348380955535   -0.95375034922737
H           1.89249098653153   -0.59635634015025    0.70977212398807
H           1.22461778145547   -1.84908842737231   -0.08566980980086
H           2.65460797852253   -1.23559167118546   -0.59245096511371
