    26
        -50.47001953  Gyration_radius:  2.50907213687 Dipole_moment: 1.670
 S          -1.60838434769072   -0.91147521939270   -0.33661979376948
O          -1.71563486200673    0.36609646275555   -0.99463889819308
O          -1.41789453351071   -0.79808554822486    1.10768151304830
O          -0.58688647130878   -1.77237916411250   -0.91975839602318
O          -2.99242289869575   -1.64827156342609   -0.53308711728223
H          -2.92728266046131   -2.38438194257690    0.06724948893696
H           0.46968468925481   -1.29826490698228   -2.14261641491113
O           1.16243559752062   -0.94339863311927   -2.74139538403943
H           0.81762367588454   -1.02990502975120   -3.63093977396478
O           0.72744858658936    1.34458245449274   -1.34703301317543
H          -0.23399437616086    1.16618330186637   -1.34196332653920
H           1.09122497002164    0.69073137179180   -1.97306419390598
O          -1.65480514444704    1.85942785806052    1.47244963007744
H          -1.78558123816904    2.06424973320952    0.54176739052330
H          -1.72612485066182    0.89001764223004    1.51539462413419
O           0.75036635608012    2.26580273703875    2.67557986712261
H          -0.17875350517949    2.20914402248616    2.36511825812147
H           1.02305138433362    3.17399793123068    2.53975566423083
O           2.01568814229385   -2.08050324521176   -0.07020803197324
H           1.07250299043293   -2.20070143572969   -0.27727684969083
H           2.43193071702653   -1.91438701267490   -0.92114554851860
N           1.07829178345345    0.18909311716915    1.00885542018573
H           1.74588490244336   -0.59446234097582    0.89170321121262
H           0.13512547883209   -0.22908176000321    1.16913306674244
H           1.27412439970265    0.85434618205150    1.78044357015912
H           1.03238123453621    0.73162498768183    0.09461502737946
