    26
        -50.45901511  Gyration_radius:  2.68767358797 Dipole_moment: 4.411
 S          -0.65575738053216    0.77820609563476   -2.41322044284422
O           0.34957585864762   -0.22844910463649   -2.66840894554322
O          -0.30110061392097    1.65524291699373   -1.30144355498697
O          -1.99435216120666    0.23039880160859   -2.25839660899963
O          -0.70420998588379    1.70245120369733   -3.70477902577205
H          -1.44652223980626    2.27364433430386   -3.53193614503359
H          -1.73666641562710   -0.81189495416386   -1.13733915404518
O          -1.54755914463945   -1.45758916277259   -0.39636784073620
H          -1.97326338163765   -2.27596576868080   -0.65831845068441
O           2.10273388153231    0.59751473721111   -0.96522139097631
H           1.72043094836367    0.26269273702898   -1.80725816118589
H           1.49212352477313    1.32586414337675   -0.76428798763830
O           0.08467799850282    1.02935557324051    3.09035498072438
H          -0.47662876985541    1.08970989513137    2.27551735021845
H          -0.50167533321301    1.22530403397583    3.82215051126303
O           1.39756225327329   -1.23148714555281    2.91589584514190
H           2.29242401566141   -1.01329245079086    3.18206609928122
H           0.86977463684768   -0.40127198021844    3.05324787887701
O          -1.50196149317492    1.02898488689229    0.98616288328896
H          -1.79299093606459    0.13982498261949    0.75429429605969
H          -1.09762313866181    1.38383915337565    0.16741982951620
N           1.08525205860122   -1.47554274651465    0.27846577796809
H           1.54807361151277   -0.60857233219779   -0.16053089362369
H           1.52171838853165   -2.30871223669063   -0.10256251271117
H           1.19366842924919   -1.44264964095938    1.32831517464712
H           0.07229536869745   -1.46760599188078    0.01618050780807
