    26
        -50.46500747  Gyration_radius:  2.57886650555 Dipole_moment: 6.302
 S          -0.51606960926549   -0.55971349584953   -0.24437819598459
O          -1.64912838183543   -1.12771829999590    0.63654215452054
O          -0.69815196376869    0.89902288183185   -0.32115710063247
O           0.74077861368220   -0.89266108689699    0.41162055057284
O          -0.59520366847495   -1.16083480504645   -1.57093263944465
O          -2.59768420150226    1.12173028646603    3.05179591531899
H          -1.63091716637784    1.16767403112344    2.89619827002012
H          -2.75558487221327    0.29388032203492    3.50890157589622
O           2.78506854305668   -2.17163519969472   -0.62816503695189
H           1.99056192464666   -1.82391671714114   -0.15749467547887
H           3.52323689319116   -2.04622958778993   -0.02971242721488
O          -0.00808789625036    1.02676939661437    2.24279044959190
H          -0.25831626274339    1.24960276807370    1.32871001714153
H           0.41190232788739    0.16414757086685    2.14590306792944
O           1.59312703381276    1.63278253184289   -1.37752745734679
H           0.68044573681171    1.46769888065156   -1.04198250431285
H           2.12896582058304    1.77175249042567   -0.59356398918723
O          -3.31023923300790    0.79133708985987    0.49009562631444
H          -2.43238265451274   -0.49158840030750    0.54961417036485
H          -3.23116385806168    1.04938162070513    1.43811440327797
H          -2.62361855602961    1.28646870677399    0.02247418982843
N           1.71680520916471   -0.73180891004437   -2.59064344861159
H           0.70871305178871   -0.98671968486449   -2.29307203748614
H           1.86083360490006   -0.83984890385244   -3.58827184016991
H           1.83037009251422    0.26145637284261   -2.26606757226822
H           2.33573948196060   -1.35102985867651   -2.01979146566742
