    26
        -50.46422957  Gyration_radius:  2.54962161802 Dipole_moment: 2.248
 S           1.68677733922361   -0.61696677300081   -1.72528208626943
O           1.71303104041546   -1.98291620836193   -1.21409320956939
O           2.47165076504027    0.31367181032504   -0.95554245088727
O           0.30761488384833   -0.15596395306911   -1.90496944572861
O           2.32857269338806   -0.69393221389335   -3.17270024048407
H           2.05103948999762   -1.55363124791588   -3.47382813338310
H          -0.06867344021235    1.27053095647174   -1.23026630522634
O          -0.26721016985450    2.08893898554166   -0.70707748831138
H           0.15737502766222    2.80893011245697   -1.17516361611494
O          -1.01458683867494    0.55569847312769    2.95783272282859
H          -1.14545070776845    1.13373002403206    3.71036436474816
H          -0.13563782015526    0.75079229290179    2.59976604990941
O          -1.94865173830363   -1.15258308875256   -0.71152305410969
H          -1.33424187974013   -0.81335156651391   -1.38468716195421
H          -2.35125249369524   -0.35642464562475   -0.28806953343196
O           1.11800508177128    0.84449490885149    1.22964382097746
H           0.55390795815774    1.44693585068151    0.70151044802264
H           1.84719490337975    0.65797766119636    0.60013703227448
O          -2.50415804106816    1.07369280710947    0.63195902296838
H          -1.86242007282065    1.63065330307862    0.16855975248165
H          -2.11697585978454    0.87330609018465    1.50029504168256
N           0.10186211017131   -1.64234306931361    0.80077389041771
H          -0.84310143391225   -1.53157383814463    0.28730809127094
H           0.79190707434704   -1.94370196540067    0.05542779374347
H           0.41990410428846   -0.70240438002674    1.13224989064116
H           0.04351802429998   -2.30356031592592    1.56737481349769
