    26
        -50.46443336  Gyration_radius:  2.44671974669 Dipole_moment: 6.627
 S          -0.79223634336446   -0.94094111837850    1.55870761125565
O           0.39552250978822   -1.75582011488119    1.22642240514306
O          -2.02883414039833   -1.64788048736025    1.37344338362930
O          -0.72705923091187    0.30297951607603    0.80129868945288
O          -0.67556280859142   -0.56179130586867    3.07474209546972
H           0.18141100095389   -0.10292366273187    3.12086568429874
H          -0.68314581224461    1.49658453245065   -0.23089962199639
O          -0.49353596275335    2.22481554400731   -0.87478247739288
H          -1.07138274457734    2.94667374918325   -0.62311315397039
O          -0.75382347449736   -0.08692680537506   -2.44419461972071
H          -0.78341387319637    0.84006975069812   -2.16278434026308
H          -1.53906681276165   -0.50428612986146   -2.01874996773471
O           2.06306297659088    1.66348397439588   -0.19852155777448
H           2.68307403825414    2.35627511781957   -0.43039859917566
H           1.16504204469406    1.99014732031210   -0.42400520722889
O          -2.78040283139521   -1.17169385998124   -1.10643482051858
H          -3.21113555168333   -1.99474819513359   -1.34422557795579
H          -2.53561732344033   -1.26667713880460   -0.15823081554104
O           1.79858104567499    0.22869710211155    2.34962937150278
H           1.84747637778881    0.85380411660634    1.61446361877855
H           1.55982251638852   -0.62588198002400    1.95363127550437
N           1.29907131460000   -0.86047156795730   -1.02554388255979
H           1.77524618576971    0.01855089677624   -0.76267683454749
H           1.93358639846416   -1.50083917252760   -1.49016775420820
H           0.91247070826367   -1.29646195123429   -0.12409010881613
H           0.46084979258532   -0.60473815031785   -1.65438480563119
