    26
        -50.46536359  Gyration_radius:  2.4611959067 Dipole_moment: 6.619
 S           0.47583928667012   -0.60924369204343   -1.43152417700208
O           0.13083118469705    0.77886276141986   -1.01725470755398
O          -0.63861208387867   -1.21537364471445   -2.10140151088788
O           0.89121096708838   -1.34226456944173   -0.22784046849540
O           1.67749622815077   -0.52408036821787   -2.39524562493367
H           2.49752463647463   -0.44867782033853   -1.82077357279467
H          -0.56464966100933   -2.04915933332557    0.17520041203599
O          -1.51693411930199   -2.29625199174992    0.23697939795048
H          -1.66934481752248   -2.80928112604913   -0.56212968890749
O           0.29459445118085    0.67913331960031    1.65326965400100
H           0.58095746164025   -0.22998829791109    1.78188815560320
H           0.26095254596103    0.77888016758905    0.67834382784126
O           2.33074627574368    2.08899508828451   -0.08313616992909
H           2.01244587833323    2.22361421248965    0.81420488778605
H           1.55453700130221    1.81110358836220   -0.60080232963881
O          -2.27718796367582    1.18997203526652    2.16154912218954
H          -1.29452592267906    1.12448801904861    2.12220378880765
H          -2.55557581059799    0.65740887890570    2.90850525145918
O           3.40354404758173   -0.35191941186406   -0.50513819941132
H           2.71946290237069   -0.85858871307622   -0.04108069321449
H           3.25570669085867    0.59125506319415   -0.28198174652596
N          -2.34496251226247    0.17503856800013   -0.29963515459150
H          -1.45157236368631    0.54692482272539   -0.71831920890519
H          -3.11209261129835    0.29166615281140   -0.95306746580373
H          -2.14767347545279   -0.85546762844759   -0.11643441934259
H          -2.51271821656578    0.65295392949117    0.62362063031779
