    26
        -50.46146375  Gyration_radius:  2.62281482477 Dipole_moment: 1.532
 S          -0.40456405185098   -1.03596244384156   -2.07165267859291
O          -1.24639932012563   -0.46726356814759   -1.02627776177794
O           0.50130989446757   -2.05246498466539   -1.55638587623215
O           0.27574290886226   -0.01903092259647   -2.84411687324951
O          -1.40182174110359   -1.78474755728591   -3.05425455121125
H          -0.81223560742256   -2.22610243120353   -3.65796777008820
H          -1.42863596583528    2.53760928028635   -1.57916529667107
O           1.65214639891000    1.41738201985940   -1.09488522273164
H           1.33988274469131    0.92022212971908   -1.88151350496747
O          -1.32609478707554    2.15897245922961    1.87085057636053
H          -0.62309181684376    2.70607430663439    2.22430262584455
H          -1.30753323074336    2.27280589244949    0.90170348755949
O          -0.99572057480608    2.12806556050615   -0.82888431134523
H          -1.12820694884542    1.15315084842130   -0.94337569154909
H           0.88878230543187    1.97618750246245   -0.87753956897147
O          -0.98864997025667   -0.51365772804927    1.67157267953398
H          -1.35542320097479   -0.65508955244018    0.78085421937651
H          -1.20471927039033    0.41629099877959    1.89218388625339
O           1.19968264530655   -1.70425230419021    3.09076126542251
H           0.30227805973205   -1.43653684412325    2.84867484941922
H           1.11316702817025   -2.31119604006197    3.82643576804936
N           1.41936418588856   -0.69388758756345    0.47534630117695
H           1.17169469812357   -1.38567916849211   -0.28398908932187
H           0.53783673003611   -0.54883802693857    1.03070662042946
H           2.13287724083946   -1.05314307749644    1.10573159033018
H           1.68833165577745    0.20109121877504   -0.01911569294718
