    26
        -50.46702370  Gyration_radius:  2.42486048888 Dipole_moment: 6.431
 S          -0.79781085368931   -1.08835639346180   -1.39913564982316
O          -1.22414094944854   -1.35353495432805   -0.00893128567164
O          -0.28754447785786   -2.22011085894837   -2.09058262144859
O           0.10546990094788    0.07281392259130   -1.38348994472222
O          -2.10117911822573   -0.60962937092872   -2.15218833506644
H          -2.57530233230119   -0.00556787024376   -1.56148170602726
H          -0.45535700839785    1.37007203893244   -0.47966743195519
O          -0.75274399586026    1.97754332677871    0.23702631913923
H          -1.71249258402645    1.88404428417044    0.26151388147510
O           2.18348448937902    1.73674594661689   -0.60990659691585
H           1.62473797783124    2.47554149031294   -0.35565147784906
H           1.60555534530304    1.13014694057745   -1.09767090120375
O          -3.07533138047791    0.44059118343329    0.18392395130970
H          -2.43413074782185   -0.30807681496354    0.26981822596377
H          -3.94043092613975    0.08956786399591    0.40141339390998
O           2.73929606837794    0.01058482387068    1.37285224508928
H           2.77524811298735   -0.80879613365356    0.85337569819019
H           2.75857100025358    0.72528677715353    0.69887000703695
O           1.80517555633833   -1.82219162184544   -0.34794330881566
H           1.26863327052069   -1.17475909174163   -0.82614740333464
H           1.62315606452101   -2.65302004789623   -0.79313013014425
N           0.16896652281432    0.02113989223493    1.79562141140919
H          -0.15969027733081    0.94301649024504    1.40908657792972
H          -0.26483445649428   -0.69736230037005    1.16328797104658
H           1.24897018437053   -0.01843853065596    1.70347657775583
H          -0.12627538560804   -0.11725101186659    2.75566053272210
