    26
        -50.46347354  Gyration_radius:  2.63603001006 Dipole_moment: 7.105
 S          -0.06695503043771   -0.09202607552308   -0.74796420813946
O           0.53040650497751   -0.92568043577210    0.41704528105441
O          -0.42138817040246   -0.97925839997422   -1.82746198327708
O          -1.23749022850275    0.62441070885904   -0.21157163390833
O           0.98880863194776    0.86487657554539   -1.09591847160847
O           2.50853189086128    0.88507908060155    1.10422146923859
H           2.25315865939739    0.05186058374268    1.51048542551536
H           2.08616801329908    0.85371465561788    0.22089894062998
O          -0.15279938796242   -3.62129660868243   -1.67550248392808
H          -0.25697172474090   -2.66389910762009   -1.85853086553489
H           0.75278097319343   -3.83795771398443   -1.90084524625378
O          -2.91199339320225   -1.43947852276539   -0.51168501154315
H          -2.68004099813752   -1.68631741939140   -1.41188164957295
H          -2.44371293590515   -0.59849611148980   -0.35659796509460
O           1.40618853090159    3.01748737251830    2.18760904877410
H           1.86716111450826    2.18519462753478    1.90183673156402
H           2.09757661880218    3.66039496883962    2.35254039011107
O          -1.04353770869099   -2.86562376576268    0.75436604843632
H          -0.75447797369122   -3.41230438705537   -0.00386459064574
H          -0.09940114199835   -1.71693758135995    0.62360902302575
H          -1.88948551030376   -2.45778496790358    0.45872961489097
N          -0.11640905364588    2.88769085168940    0.02124389237243
H           0.54562487955138    2.36182906088910   -0.60941875554229
H          -0.82856894637955    2.10128310136975    0.12978249572136
H           0.37669253885434    3.08344668815534    0.93274007051266
H          -0.50986612228884    3.71979284191892   -0.40386559678838
