    26
        -50.46392480  Gyration_radius:  2.61109446506 Dipole_moment: 2.913
 S           2.07778289024026    0.86607634661197   -0.73536899938960
O           0.95553337556330    1.52586052981982   -1.39106581848185
O           1.87720664848470   -0.56295952735405   -0.60158360634734
O           2.41952873853678    1.51130668284366    0.51986119320326
O           3.32186318571182    1.04526127825376   -1.69786702497194
H           3.38617005915454    1.99230231949123   -1.76453502690493
H           1.30450021052278    1.34700330826697    1.64361033956021
O           0.53968857625651    1.23375362945312    2.27048386064198
H           0.72658126132313    1.80042072490728    3.02026775951526
O           0.10580589160990   -1.88048442582190   -2.06579836639087
H           0.78937184123519   -1.33444998343734   -1.61999294729078
H           0.54152033733218   -2.70061358975485   -2.30300315554441
O          -1.51533611269235   -1.66107516288757    0.04496850907579
H          -1.06948873389879   -1.87003492812941   -0.80491399996171
H          -0.83285143363838   -1.83660291686715    0.73292425112922
O          -3.74657158199123    0.14015447052852   -0.06741553934719
H          -4.62159030093327   -0.11553632750565   -0.36021696160344
H          -3.23112480530591   -0.67596424184459    0.00469865515740
O           0.63097635088546   -1.52494060436936    1.61134459349914
H           1.22069189732497   -1.30683717776048    0.86703171634636
H           0.57882719888215   -0.71292721153128    2.13212294701147
N          -1.10099440936477    0.96561867236428    0.11173018487881
H          -0.72122012589449    1.18707366461736    1.04779004582589
H          -1.26567581695178   -0.08527084938280    0.05404517850691
H          -2.00363189079714    1.41083729453960   -0.04949781276782
H          -0.36756324157244    1.24202802494000   -0.59962000534109
