    26
        -50.45831853  Gyration_radius:  2.67571892969 Dipole_moment: 3.257
 S          -1.89243250071033   -1.52057767520723   -0.94120398593045
O          -2.46035862760834   -0.84009170983924    0.21894547485674
O          -1.01408162658096   -2.60590702391251   -0.61376096909013
O          -1.24823784130097   -0.55081124432543   -1.84189433738353
O          -3.13449210048940   -2.10727844125558   -1.73961901847303
H          -3.81865421976751   -1.45612033864905   -1.60878855618785
H           0.39003305365571   -0.83304250020455   -1.54639325345331
O           1.18776134238602   -1.11245598035470   -1.04383743700744
H           1.06983454211143   -2.06653381956141   -0.96783175251324
O          -1.07900338000057    2.05023365786379   -1.68838967925012
H          -0.71171248283171    2.27019751755354   -2.54643299205573
H          -1.24048894834986    1.07593046313164   -1.71520379247766
O           1.90051439667412   -0.43977844767762    2.92192120765608
H           2.53811930722388   -1.03723719957236    3.31217787584998
H           2.34969779698689   -0.00620656139982    2.16469264971999
O           2.72314232462901    0.68306054952947    0.58204462928292
H           2.14386238114929    1.44966444588843    0.48051034792011
H           2.47149092000685    0.06851420852143   -0.12063262712560
O           0.40808456327966    2.38863834965852    0.44965844696338
H          -0.12410514239957    2.31894763092385   -0.38576898898964
H           0.10528222396929    3.17986532116268    0.89666561235344
N          -0.12705183346044   -0.18613060416740    1.17319186507618
H          -0.00956608699995    0.84300062594167    1.06471960080466
H           0.42742970683414   -0.63405228947329    0.40723752625555
H           0.27848000948058   -0.47423557400645    2.07572302658347
H          -1.13354777792337   -0.45759337052336    1.01226913658670
