    26
        -50.47201731  Gyration_radius:  2.51665358516 Dipole_moment: 1.494
 S          -1.34263859245243   -0.10040287466236    1.47583500830667
O          -1.65099592896140   -1.23179717095789    0.62711124055821
O          -0.80532221819044    1.02037267963182    0.70394887502975
O          -0.50299535715034   -0.41616246538994    2.61120891963622
O          -2.72511422307659    0.39200075340771    2.06765299778645
H          -2.44423061322491    0.96150026352007    2.77582636673081
H           1.00184268782188   -0.71766389992449    2.09893572202289
O           0.67597665291385   -2.09170456390006   -0.45143839336671
H          -0.20025703950591   -2.06630413076748   -0.02760340760800
O           1.88722129916478   -0.90616988292164    1.69887576755659
H           2.40773243340863   -1.32201755695372    2.38824093278198
H           1.29857248290651   -1.79881161935620    0.23684890944291
O          -2.60621850210575   -0.68690097981900   -1.82937346303789
H          -3.36456600750396   -1.23825863776687   -2.02464609608390
H          -2.35106027420325   -0.89422251939088   -0.90793502663314
O           2.00565497299789    1.82369648782005   -2.06265662012461
H           2.09344229526510    1.79072294732268   -1.07789649139216
H           1.98735176541433    2.75249681699734   -2.29558565183763
O           1.84839379337088    1.64578931325517    0.58833899300531
H           2.16045112008149    0.80082513766401    0.94547810146406
H           0.88491264141483    1.61723712127506    0.71878756199416
N          -0.04610649867352    0.14136855396731   -1.68735722953969
H           0.68148415188894    0.76173581044072   -2.10011863462561
H          -0.39841809946975    0.57843798780655   -0.80003317369645
H          -0.86319328495485   -0.03103203063471   -2.27974946551540
H           0.36808034350161   -0.78473554042761   -1.39269572134632
