    26
        -50.45351044  Gyration_radius:  2.48161642006 Dipole_moment: 5.571
 S           0.08040995625466    0.29776156360365    1.60976964460988
O          -0.87731699138976    1.29521984030674    1.97479925322364
O           0.97156032027120    0.75484124159388    0.52650770122957
O          -0.53551774286383   -0.98241757269013    1.19460697372329
O           0.97837606581250   -0.01816241589819    2.83070491663904
H           1.32460601736714   -0.93541486836082    2.65935154806826
H          -1.04439302106770   -1.20504920875564   -0.11737635807204
O           0.79206099524311   -0.07337087713209   -1.93790831784193
H           1.58551899601265   -0.61857316777881   -1.96614941047930
O          -2.94024676661043    0.50433105759386   -1.65990781442735
H          -2.96647245051042    0.70459449671638   -2.59755585126221
H          -2.44894702074981    1.27620872753069   -1.20427546187747
O          -1.27724409616257   -1.30021573834074   -1.14406394492277
H          -2.05517342202756   -0.62333519847728   -1.34137045060218
H          -0.44852551084255   -0.89298307397091   -1.59993240162690
O           1.62553376889775   -2.36843892418620    1.96140631527527
H           2.19374248918925   -2.11445494500924    1.20888873006266
H           0.71612443424038   -2.34601361397400    1.62744656297007
O           2.88153603173016   -0.95973262748984    0.00396738761946
H           2.23313494899619   -0.25842979632923    0.25414590147237
H           3.74264894249082   -0.63662716187048    0.27295876657527
N          -1.50884124745738    2.35508990426142   -0.52810418959905
H          -1.92793312438564    3.27246499700081   -0.43521163035731
H           0.84550563256684    0.39256680619622   -1.06546969301207
H          -0.59466153925620    2.47638552308918   -0.94813316133591
H          -1.34548569583127    2.00375504240954    0.42090499402748
