    26
        -50.46725641  Gyration_radius:  2.60235483639 Dipole_moment: 3.995
 S          -0.11664035500312   -1.50259893053007   -0.63381593730064
O          -0.96569678702396   -1.87875923354473    0.48932995624857
O           1.09578626612478   -0.84131157565353   -0.19494220791281
O          -0.86927017875278   -0.67219232259452   -1.58520069802711
O           0.31081491016572   -2.79790166515349   -1.38604610055744
H          -0.50267671999417   -3.08365062019781   -1.84931758414442
H          -1.27345345365344    0.70204628604504   -0.85953159219187
O          -1.47750634991395    1.53281175088179   -0.35565884257408
H          -2.26320091953474    1.90362980196633   -0.76062676613672
O           2.43813968791980    2.53741019173238    1.33829725199825
H           3.37699265993926    2.65811336726687    1.19077705826352
H           2.04369608972361    2.35153523529956    0.45021876936452
O           1.31133847629058    1.74365984836392   -0.92706537771419
H           1.33578934167384    0.77591901926261   -0.79717846265013
H           0.37693165791525    1.97780284100142   -0.86728759650044
O          -1.96487447447575   -2.76079170055635   -2.73394166572658
H          -1.78889984180614   -1.86077531085878   -2.39136830997565
H          -1.84295386972137   -2.71967395336419   -3.68527737341490
O           1.63629538641057    0.17085476019205    2.26178863554813
H           1.68943705900265   -0.33539123206640    1.43022211698542
H           1.99552409678308    1.06465084898616    2.04811544858500
N          -0.93286792203485    0.22726160662197    1.99086791248045
H           0.12373259055802    0.29084162619276    2.23816572114299
H          -1.52498143665270    0.27273082940983    2.81254715406207
H          -1.18111253864398    0.95131023500734    1.29575534325058
H          -1.03034336528913   -0.70753171370729    1.48117312689744
