    26
        -50.46204148  Gyration_radius:  2.6087820688 Dipole_moment: 3.611
 S          -0.98515861210839    2.02853044674351    0.04003213430845
O           0.29571445651903    2.58607637219680    0.39497499634743
O          -1.26183851928715    0.79142189247825    0.77988014680507
O          -1.16652353334727    1.83251729301754   -1.38780328259374
O          -2.09160752145048    3.06790490078587    0.48948209370527
H          -2.88181347397432    2.72660746165255    0.08119702031952
H           0.00453175543288    0.87143492861180   -1.80016148350994
O           0.77063469340578    0.26243252797863   -1.99965241179618
H           1.24964152561999    0.68258953386299   -2.71600821470016
O          -1.87050292421018   -1.86013655428615    0.32410550769743
H          -1.83103749697254   -0.91232393891067    0.53205679512108
H          -1.71407455899330   -1.92622342913112   -0.63743782969107
O          -0.74172307789402   -2.05625949522724   -2.15112777448585
H          -0.23955842553220   -1.22577231472600   -2.21182813015053
H          -0.10427685946358   -2.75313892542505   -1.98231486939980
O           0.40822337870960   -2.86582791399756    1.14925755936629
H          -0.50912020797800   -2.59662287175457    0.85925317335191
H           0.30904737464758   -3.22711515316750    2.03054033071798
O           2.33544438569415    1.72445568042281    1.85257802223098
H           1.56585570998655    2.16347940961699    1.42797190138115
H           3.08626079545677    2.29716436626439    1.69063185248893
N           1.10454542901522   -0.34008221018284    0.65403573904936
H           1.26262616279939   -0.22056944761504   -0.35903724765988
H           1.05373053831899   -1.35453817309663    0.91226516238630
H           1.79476160454920    0.21321152959739    1.19353894701655
H           0.15621741108848    0.09078408418392    0.83356987169698
