    26
        -50.46757432  Gyration_radius:  2.39720676002 Dipole_moment: 3.761
 S          -0.54785327472975   -1.55261898433625   -1.17411895109404
O          -1.23085321812277   -1.40054843333566    0.10570618625265
O           0.53720832771627   -2.50239548743471   -1.14414379691965
O          -0.15669564800039   -0.25011826247274   -1.69615562251065
O          -1.60956967962320   -2.15308003003874   -2.18298426631750
H          -1.12676999270408   -2.92585131536164   -2.45225762261412
H           1.16364490339598    0.53215170368696   -1.16011376217198
O           1.83807281638951    1.11962238628970   -0.73635709161987
H           1.85139522450784    1.90975205035283   -1.28252872773858
O          -2.30631189959297    0.90889229775388    0.68333721019568
H          -1.96478221874534    0.03747333323972    0.36351962783677
H          -2.96408579091143    0.69704608451224    1.34771307368715
O          -0.78037694126489    2.38732431421082   -1.16880380404405
H          -0.64740053865170    1.49445134060947   -1.52462264900408
H          -1.68056199219367    2.38230091097810   -0.83465920703432
O           0.44019516146619   -1.03712579418759    2.16959337277311
H          -0.24792727875084   -1.35073561645498    1.54978290919439
H           1.28663472760783   -1.29916042123592    1.73453506352072
O           2.40796311088613   -1.46029228325380    0.45832217075837
H           1.83831691502172   -1.95679700125374   -0.16253745664828
H           2.60237632810330   -0.62061663689841    0.02828344617097
N           0.26424979325203    1.43865551866341    1.43192510607227
H           0.89924912808348    1.46561254425292    0.59344272240455
H          -0.72200284386182    1.49247368206297    1.09713987571916
H           0.37853502613510    0.45445493931458    1.87707306017937
H           0.47734986458291    2.18912916033791    2.07890915294586
