    26
        -50.46302591  Gyration_radius:  2.54890238071 Dipole_moment: 3.478
 S           1.80177941642878    0.80525177866850   -0.69804041075306
O           1.05522311455927    1.60218874342449    0.25779299636036
O           0.92649070177955    0.07698715856517   -1.59852383632466
O           2.78544317820508   -0.06064792167637   -0.06225863092459
O           2.65875487332698    1.80786722301727   -1.57505737477190
H           3.53747320228648    1.49767750388387   -1.38556890497319
H           2.16158413327169   -1.23760810939581    0.81129751910046
O           1.70672201671817   -1.96546964162238    1.31423859362699
H           2.39890781508220   -2.44201202200651    1.77466443904643
O          -2.24759964109739   -1.08032819567826    0.74894898323322
H          -1.65986207511619   -0.59702239183528    1.37373390660083
H          -2.61091844567593   -0.40182962114469    0.14241166271879
O          -1.17010628159572    2.78097198954601   -0.53879586442793
H          -0.30557706087313    2.35381367606954   -0.36074207639104
H          -1.38537105696257    3.25787362667755    0.26563542007382
O          -0.19640216779739    0.03002460902978    2.04936594605114
H           0.43099480355891   -0.70281644293548    2.09680118075713
H           0.22803597590538    0.69195417926884    1.47181378370409
O          -2.90944828368619    0.80107117744464   -1.02936082814452
H          -2.23086943920644    1.50606820176365   -0.93008978293897
H          -3.72161003835417    1.24268668629874   -1.27844646101246
N          -0.25272440612418   -2.02150605128243   -0.58521344745104
H           0.15879888666899   -1.17632499011747   -1.07768164666000
H           0.43812785667449   -2.30100228702051    0.12972267369077
H          -1.16403540631530   -1.69949761239487   -0.07088151976015
H          -0.43381169166025   -2.76837125654776   -1.24576632043431
