    26
        -50.46161212  Gyration_radius:  2.54527537201 Dipole_moment: 3.642
 S          -0.97596508746889   -2.07712222906287   -0.65723438578525
O          -1.67666839683643   -1.34112829094106    0.35771575058415
O           0.30953904436885   -2.60967221126374   -0.20591430188354
O          -0.82295634124565   -1.32760576861459   -1.89981451214439
O          -1.86099805034355   -3.34918579972139   -1.01147212108626
H          -1.29331184260789   -3.85195412901314   -1.58757526721524
H          -1.15898448378544    0.14083766126243   -1.42847355688142
O          -1.38911938874660    1.04183899103878   -1.07009156685267
H          -2.32865304785402    1.13866132334648   -1.23337574247910
O           1.25458861875156    1.91307745343280   -0.79373628864557
H           1.63852396738352    1.01972782201797   -0.87510871649081
H           0.33956495305840    1.81201089610785   -1.08889767841158
O           0.86810675229177    3.03121782231237    1.56534209067053
H           1.18544442394093    2.67457943140227    0.69797341935141
H           0.68656635114162    3.96051065594043    1.42152390621643
O           1.87469956090293   -0.71156014003994   -1.24315970276451
H           1.60291325533039   -0.68214119542530   -2.16372926404127
H           1.36313387623395   -1.45765609597451   -0.87082163250746
O           1.11937455343173   -1.05522503195681    1.75244389209572
H           1.93167794318051   -0.76188943886293    1.32865765823271
H           0.76024263438886   -1.75580837353539    1.16268982158720
N          -0.69870150043466    0.86852283451059    1.58351207083530
H          -1.04805865241135    0.82782590688549    0.59675044410722
H           0.00485325746787    0.07730403220152    1.69333820677438
H          -0.21214380126720    1.77868595654832    1.75488064077868
H          -1.47366859888125    0.69614789739455    2.21457683594869
