    26
        -50.47156734  Gyration_radius:  2.4654888998 Dipole_moment: 3.458
 S          -0.54766630160574    0.06308865700903   -1.41017396457062
O          -0.28481311700168    1.31695629095612   -0.68494729289807
O          -1.59447881706352   -0.70104775678480   -0.75247271519647
O           0.66631171990005   -0.70326380288071   -1.58684785064204
O          -1.09860133869352    0.45979252990588   -2.81620690507408
H          -0.41500929561076    1.06863165382546   -3.15445705570854
H           1.88280857796765   -0.18699101766076   -0.59564811614417
O           2.59318272185617    0.03710110072894    0.04710686502837
H           3.41933919040650   -0.15448293618015   -0.39877922181611
O          -2.75779250089070   -0.52588785945130    1.62131352478359
H          -2.71555489720717   -1.43591384431819    1.92471099262698
H          -2.52806192178132   -0.56009487697516    0.66834446635205
O           0.81616935899040    2.29789072791250   -2.86854440656313
H           0.62248614203598    2.08900404421650   -1.93405322800756
H           0.56690505905273    3.21519749338091   -3.00211654460091
O           1.29178012520587   -0.98890881956003    2.15045844049820
H           1.94551751746414   -0.64213669420354    1.50874188889943
H           0.81389359432273   -1.69488745849097    1.66021453092495
O          -0.07186848294411   -2.55074184398761    0.43933149614193
H          -0.70798126173039   -1.94782121884733    0.00802827773679
H           0.57962004960027   -2.72058374323772   -0.24648653942890
N          -0.49822987336083    0.87590509768102    1.90774480929168
H           0.26985501530510    0.14351097820462    2.12305273186900
H          -1.43503437563216    0.40905338012560    1.98459096876351
H          -0.42908670078938    1.68670833361468    2.51215433388212
H          -0.38369017778099    1.14992158500728    0.89494050385232
