    26
        -50.47900073  Gyration_radius:  2.4029482754 Dipole_moment: 4.348
 S          -0.75071164755949   -1.35991492197230   -0.22637222397998
O          -0.51273214376556   -0.86128184147719    1.13470026269088
O           0.46907446843272   -1.39154654209064   -1.00226947980618
O          -1.81141194119184   -0.58594471365986   -0.86404767175157
O          -1.24052266115496   -2.83515740959679   -0.09078078831228
H          -2.06961511589081   -2.73813378765928    0.41719956862769
H          -1.36658228907952    0.90292082047327   -1.27774276020476
O          -1.04426907885264    1.82613249940006   -1.44261788378609
H          -1.72882351162459    2.25751423827447   -1.95667487312694
O           2.09833418002597   -1.30667549641544    1.14733236924032
H           1.16455307849412   -1.20464250680215    1.42235177135062
H           2.00949954286991   -1.70569895753133    0.27075607161809
O          -0.14851296177456    1.78404831828729    1.16760859383799
H          -0.55068420795380    2.03499497913042    0.31934055767075
H          -0.37314789658476    0.83671809811365    1.28393018801927
O           1.46693900234036    0.86323304859939   -2.01833680941346
H           0.64355576337112    1.38060470984153   -2.02382030444796
H           1.16996626716484   -0.05204213877501   -1.83539855683504
O          -3.18916203442756   -1.60506603500946    1.19914983662345
H          -2.56208103994716   -1.25030280322814    1.83893149697279
H          -3.07713617440528   -1.05729071931425    0.40576139786388
N           2.31673341011127    1.23590931433592    0.43624881114084
H           2.14124875470946    1.16885962749347   -0.61437673277601
H           3.12148287001167    1.80705801093440    0.66534472315928
H           1.41265918681201    1.61368947452815    0.84974786351989
H           2.41134618987862    0.24201472410445    0.79403458210792
