    26
        -50.46903841  Gyration_radius:  2.4160305696 Dipole_moment: 4.603
 S           1.30968469875443   -0.23869162393437   -1.19046356347785
O           0.69412349852357   -0.12470517917946   -2.60558180784987
O           2.71242809111957   -0.49583576256172   -1.31884751352479
O           1.02868021712727    1.03110481049258   -0.48989279811057
O           0.59609373616139   -1.32818946274778   -0.49252061347053
O          -1.96440900102482   -1.55886413515157   -0.23220856024363
H          -2.20658090214732   -2.48084649554368   -0.32644416545089
H          -0.97787312237136   -1.51736557065235   -0.35510527774208
O           3.22214484220118   -0.59384114429976    1.30692811254340
H           4.16005755310925   -0.76567337618517    1.40770650859220
H           3.07489281313177   -0.56541871181026    0.34044583438148
O          -1.93799926886205    0.35212434621503    1.75733914036430
H          -1.89054202558063    1.12668796377610    1.17001245672153
H          -2.16845913297474   -0.38617851980445    1.16667578490024
O          -1.28186642067307    2.15623373750529   -0.22341293909973
H          -0.37466333405501    1.76676087003035   -0.34784950000727
H          -1.17978292421877    3.10435022323134   -0.31414431984163
O          -1.83191257110308    0.34180195393988   -2.19719927000510
H          -0.28791703178702    0.05745847819544   -2.52307516664708
H          -2.10102801482767   -0.39470914851510   -1.62114575520947
H          -1.82173671731476    1.12315973077265   -1.61744442019670
N           0.64351203749926   -0.12167183910309    1.80179363261757
H          -0.37444330108101    0.06469201451777    2.04133043098822
H           1.29188987599910   -0.24578614353279    2.57345715198818
H           0.68864857340544   -0.93334533636013    1.14015049910646
H           0.97705784103108    0.62674831071718    1.14949610866195
