    26
        -50.46111944  Gyration_radius:  2.7099392236 Dipole_moment: 3.916
 S          -1.25344734579754   -0.46031727884676    2.06255607100066
O           0.18720052459059   -0.57416571466053    2.13527593017771
O          -1.80526721761809   -1.10581002095300    0.87439651823311
O          -1.72038714075901    0.91228034860694    2.18538529995391
O          -1.83459755009138   -1.25071214316995    3.30573169856813
H          -2.77261093661421   -1.15409268938625    3.17696097638709
H          -1.35063750142222    1.92562318897745    1.01829362226525
O          -1.06127414203976    2.48710566539777    0.24772889550541
H          -1.65318998688376    3.24013796477266    0.23381200525311
O           1.44741505471378    1.81430205646035    1.42796194262787
H           1.00705793218648    1.14560253371925    1.97595430864736
H           0.73273878877557    2.32729038637380    1.03005124269571
O           1.91678230467320   -0.47813296168487    0.12215327276104
H           2.18005696522770    0.41292611181767    0.42300508232469
H           1.42045440318400   -0.81814677122404    0.89427259919654
O          -0.06656297070722   -0.85577625379477   -3.48148622595760
H           0.25781629392870   -0.41922398460116   -4.27000054822131
H           0.68974207910561   -1.36235959268002   -3.11524183637381
O           1.99252122816189   -2.01787179852336   -2.17026211784204
H           2.14537167993041   -1.48035225425786   -1.37435889660961
H           1.87970394891624   -2.91986253309431   -1.86580953004547
N          -0.47644720019001    0.13595578830681   -0.99160817296359
H          -0.55250041969839   -0.14314018731339   -1.98852445602399
H          -0.71291399830974    1.12734770675034   -0.82590260285710
H          -1.10155358859214   -0.44410041630745   -0.36232130909392
H           0.50452879532884   -0.04450715068280   -0.66802376961071
