    26
        -50.47298099  Gyration_radius:  2.37645466664 Dipole_moment: 5.768
 S          -1.06327534964097    0.15661932691180    0.97023268725717
O          -1.14097498655489   -0.73449222729615   -0.19903746432106
O          -2.29997968031389    0.85375545975209    1.20664139381477
O          -0.48949214588030   -0.51870975774424    2.11651903300034
O           0.03482981448851    1.24123960632465    0.59122818613172
O           0.76056980279968   -0.15512895446054   -1.92607210113081
H           0.58422637273588    0.76541419002670   -2.14762998332086
H          -0.02130219015637   -0.43696135811598   -1.39876821205416
O           2.01071985809762    0.23259846091433    2.18763641520742
H           1.07473542309027   -0.06915136947577    2.30371892818307
H           1.93178091341104    1.17436996902110    2.01681551884607
O           0.26094785359813   -2.74288777182508    0.73413754580782
H           0.13282934637965   -2.50885199103270    1.66175137886082
H          -0.38033197052790   -2.15454363846532    0.27567079783400
O          -3.02790441858012    0.98558278599672   -1.29254826682042
H          -2.92839210482705    0.99682440058357   -0.31058825947932
H          -2.88854731684369    0.06421617261433   -1.52997510606170
O          -0.79269762430442    2.25049380984551   -1.68942005607853
H          -0.27015927220664    1.67673784762192   -0.23938159868799
H          -1.68399522949236    1.79403610543554   -1.67227404150947
H          -0.98085536133277    3.19050852152779   -1.67201124852175
N           2.27040983480961   -1.21254200814860   -0.00946825712968
H           1.57248774567423   -1.97610456429884    0.25642624873185
H           1.84197846721998   -0.70300064941192   -0.82651291755986
H           2.31424422908033   -0.57147765368352    0.83646114211162
H           3.17814798930072   -1.59854473259843   -0.24355175310700
