    26
        -50.46804841  Gyration_radius:  2.45379343453 Dipole_moment: 6.130
 S          -0.73714347639093   -0.70817207854781   -1.43917421037228
O          -1.20426220454758   -0.78956496191717   -0.04318361801641
O           0.05934281587694   -1.83364333359000   -1.82538909515812
O          -0.02010770715634    0.56960744769545   -1.61356770095685
O          -1.99994088611165   -0.63903003198097   -2.33887994641796
H          -2.59115316392235   -0.00893638938469   -1.86273681445147
H           1.48256988035394    0.63394529414804   -1.03438633687252
O           2.29525019697034    0.71463683023547   -0.47154257055672
H           2.89828021622286    1.29099663882233   -0.94268671389435
O          -0.98226976694151    2.47609584233434   -0.11001314321240
H          -0.59064354839230    1.78792849932567   -0.70223746840118
H          -0.93887551197280    3.29864693193850   -0.59988854486844
O          -3.19535056935904    0.89622301077578   -0.56999264564218
H          -2.61266752579279    1.65471630146898   -0.38486067139103
H          -2.83409111682211    0.18194997170875   -0.02427437603144
O           1.93759669174901   -2.03912866311769    0.08679279857566
H           1.24863683625773   -2.13856147669039   -0.59914783341577
H           2.39070476514294   -1.21491233980181   -0.13196527745808
O           1.19796074506383   -1.81173463272184    2.61668658123912
H           0.47994246714900   -2.43291802399029    2.75125633632526
H           1.56692197197127   -2.02604806037486    1.72212491632384
N           0.43430464507994    0.45700143372076    1.52903608019907
H          -0.28406469881020   -0.00933951255291    0.88225793759064
H           1.23861460271567    0.73379402218150    0.94009093326383
H           0.01938802132314    1.26734632935644    1.97793092332478
H           0.74105631034998   -0.31089905903854    2.18775045027838
