    26
        -50.43592861  Gyration_radius:  2.42723796932 Dipole_moment: 6.395
 S          -1.54836515698287   -1.71380649768315    0.70759763465098
O          -1.50646208726533   -0.85871875635982    1.86736427057319
O          -2.63870349995433   -2.60677662922719    0.58665821515078
O          -0.21155788279250   -2.48466590905624    0.60160867492501
O          -1.50362868333195   -0.76461336403349   -0.53973029747605
H          -0.66386656947446   -0.93419808058439   -1.08400017285491
H           0.51915053386565   -1.97426647778387    1.12351967576868
O           1.67668079177112    0.58925990716350   -0.07711752190942
H           2.51677418843440    1.04396265915869   -0.06994164698106
O           0.39195762073341    1.78251272215219   -2.14177181860511
H           0.32179812506715    1.06381950837512   -2.77376384750388
H           0.91688141587650    1.41871644459078   -1.39468952601084
O          -1.90217963891970    2.06182287889319   -0.78906125274342
H          -1.14833782663625    2.12109503436173   -1.41839333211834
H          -2.25029077992447    1.16868386829398   -0.89215614833938
O           1.65490711141433   -1.19378337519729    1.67508922071695
H           1.73332820722966   -0.43700913841117    0.96139330400868
H           2.46362506173661   -1.70658801323355    1.64020584909578
O           0.73438240041255   -1.16013009771987   -1.70448454317603
H           1.22438036235869   -0.50858177454133   -1.11494668939059
H           0.94415728372843   -2.04109692503339   -1.38557168891067
N          -0.34318320789653    1.44850429896597    1.26907782182548
H           0.57022639932616    1.17157719921326    0.73914818679000
H          -0.77714438797942    0.56704642809345    1.63419749013944
H          -0.16080427905871    2.09908996812877    2.02394360734753
H          -1.01372548202417    1.84814412164400    0.55582454506390
