    26
        -50.46500693  Gyration_radius:  2.57997281979 Dipole_moment: 6.293
 S          -0.08636394024262   -0.46911154484941   -0.64741589603957
O          -0.45788968325460   -1.96586085303164   -0.58651776926105
O          -1.13837263946622    0.28115616533518    0.05817751042567
O           1.19705759810412   -0.32070444330206    0.02436973670447
O          -0.00377032758793   -0.05351760800662   -2.04309093274278
O           3.37126655310499    0.79727711246430   -0.93217393021870
H           3.95563993072653    0.94424382020919   -0.18679255668797
H           2.63050478880546    0.24108271941024   -0.59187886785754
O          -0.24922184365454   -0.78454865763467    2.32479699447212
H           0.58984375650746   -0.96415695540102    1.88491160026766
H          -0.73236464676736   -0.25882821549493    1.66293333348307
O          -0.03830843960757    2.65836256935658    0.25921057062263
H           0.41068325279411    2.59284192332896    1.10474630283399
H          -0.56987580766310    1.83099020256449    0.18245152837871
O          -2.16351897813781   -2.70841949077302    2.30697604672945
H          -1.69833507687743   -3.53442012484318    2.16364931389526
H          -1.47378537082581   -2.03187652843872    2.47332203327703
O          -2.94148532209910   -1.77309088469837   -0.07991784031442
H          -2.79912251454897   -0.82163916294450    0.01844941782214
H          -1.46687594991580   -2.01273998147652   -0.51118215124844
H          -2.87789270846801   -2.15105752630603    0.82825566720639
N           1.32317685283467    2.13807662586936   -1.96708486798965
H           0.76110375663235    1.23278511032581   -2.15236768609847
H           1.33203633901080    2.75464780766398   -2.77172838963603
H           0.84756850293677    2.56294152851487   -1.13197425035271
H           2.27830192766150    1.81556640208772   -1.69012491752500
