    26
        -50.47014110  Gyration_radius:  2.40826868991 Dipole_moment: 4.175
 S           0.76503480925054   -1.65959418599558    0.37008465744004
O           0.84314492534351   -2.67967757380017   -0.62745687021772
O          -0.56695502807848   -1.54490782482933    0.99157255613121
O           1.12039444263341   -0.33475979058265   -0.19717201156531
O           1.78058808527714   -1.94658898110200    1.50572230710750
H           1.43059900060073   -1.46940114130193    2.30432615259853
H           0.52855694327872   -0.79339847653495   -1.77853991279135
O          -0.05933647065492   -0.93574295804353   -2.54615136824083
H           0.01936644073406   -1.88017492310359   -2.70944016230708
O          -1.25902458714212    2.24766899840520   -0.25807722787480
H          -0.75766356355576    2.15430864605430    0.57220145859302
H          -0.56322269265958    2.33685667793458   -0.94452293583836
O           0.67626811689666    1.53748892443831    1.55669162151258
H           1.43520839838982    2.12363700261550    1.53763297294659
H           0.87159824934660    0.81467978718870    0.90588920695709
O           0.43199876392440   -0.59356675078030    3.27298922862852
H          -0.28991771579204   -0.97849249211228    2.75081097642459
H           0.51068543660434    0.32081666381064    2.95173249040413
O           0.84972826571846    1.84984232528349   -1.87737886084906
H           0.66408661791359    1.42155760365719   -2.71672526136489
H           1.15382600825603    1.13986451203721   -1.28998528817132
N          -1.95036431158191   -0.22779571245904   -0.76411566931558
H          -1.42496270044218   -0.48236080062722   -1.63128753960797
H          -2.93886077947680   -0.43992148323414   -0.84226431539091
H          -1.49123962547306   -0.79375352827134    0.01670844422434
H          -1.77953704930353    0.81341548135189   -0.55324463943933
