    26
        -50.47250285  Gyration_radius:  2.48708782105 Dipole_moment: 2.888
 S           1.39139847438578   -1.65385372492657   -0.68636533822064
O           0.09731467188581   -1.22473420876655   -1.18100420781853
O           1.33334952682547   -2.06047587181490    0.71252534724069
O           2.45089864186997   -0.69395746939586   -0.93032263041125
O           1.77055648841023   -2.95040710699494   -1.51391279672344
H           2.66931883869375   -3.08952582924865   -1.23583726541349
H           2.12015585699387    0.74741257901289   -0.33744927839503
O           1.87043400631423    1.65404454118403   -0.01807726518695
H           2.69594989700009    2.11421036044274    0.14043219341069
O          -0.26863906649606    1.63855188227439    1.68326167034036
H          -1.00005791707510    1.81925004778414    1.06559579040487
H           0.54377340459651    1.70603098932091    1.14670971137323
O          -2.13066868171650    1.71277033545262   -0.34503524392379
H          -1.39973651681969    1.60607216531176   -1.02093630651716
H          -2.73815930679319    2.36029622781892   -0.70303012026200
O          -2.36752896162708   -1.02200481431602   -0.09986326280204
H          -2.49464214752094   -0.06282513529451   -0.21815352559308
H          -1.61486476171365   -1.24629820524469   -0.67784564212066
O          -0.11215727932042    1.32667724829334   -1.94539960879782
H          -0.01877842269594    0.35812135266668   -1.84369483157241
H           0.63975950980461    1.69371071889515   -1.45771518569502
N          -0.69331884678597   -0.95648136734143    1.92464403353547
H          -1.49238124300168   -1.07619557595878    1.23118886064527
H          -0.48453772281921    0.08397658401311    1.97359449815770
H          -0.91553838627055   -1.33962658018691    2.83605289298929
H           0.14809995388718   -1.44473914299257    1.50063754135525
