    26
        -50.47676530  Gyration_radius:  2.44716075676 Dipole_moment: 3.267
 S           0.61542902578372   -1.07196448767180    0.77471056254657
O          -0.83676534469467   -0.93287288279282    0.78143161430065
O           1.27650807222448    0.15794259699671    1.15978789153954
O           1.08096152983786   -1.57044828819328   -0.52283413327695
O           0.99549079988383   -2.13650564522116    1.85038706214208
H           0.67744703408299   -2.97395252579535    1.46095488540007
H           0.83582576472935   -0.48905614744071   -1.69333075903846
O           0.63352920837232    0.19809790045626   -2.37810885250513
H           1.00687391014467   -0.12651726489801   -3.19913776033086
O           0.37846139850949   -4.02158456416874    0.09987859305009
H           1.08145915607480   -4.63981521873523   -0.11240519488619
H           0.57496583349612   -3.19629197739409   -0.38710308922201
O          -1.87782003309197    0.43171857878229   -1.24961894473437
H          -1.64938468657920   -0.19808826333065   -0.53248251884473
H          -1.14077422819703    0.36224031087586   -1.87821555753451
O          -0.89713920060127    1.13035992289370    2.41435880224506
H           0.06901556670994    1.07042555718664    2.43476556542054
H          -1.14039869558328    0.29173776995548    1.97114830691980
O           1.32721360069985    2.16942367134136   -0.58457867540857
H           1.20881035000541    1.64855912416616   -1.39658681521281
H           1.50010157666597    1.49603416117089    0.10664521389340
N          -1.16380329709412    2.51856987110269    0.17661936620881
H          -1.15153558131697    2.11106258613193    1.15664958600372
H          -0.14867942699971    2.57707244853000   -0.14117976743699
H          -1.61534973773410    1.78234463076809   -0.44806192731709
H          -1.64044260532803    3.41150813528706    0.13630653607960
