    26
        -50.46877054  Gyration_radius:  2.51455203091 Dipole_moment: 1.693
 S          -1.85677932794534   -0.43038160054623   -0.31930802276750
O          -1.97235199732231    0.91428855944406    0.23557238121853
O          -1.01440750671453   -1.27963378114230    0.50456914463713
O          -1.49358821296771   -0.41900144844782   -1.72013427554535
O          -3.30234302977374   -1.07465677763614   -0.23785589098620
H          -3.78295453545298   -0.63604993229911   -0.93306483266194
H          -0.34446980151316   -1.69620045176390   -1.89859639841722
O           0.26935250591836   -2.39966838630479   -1.61532937277083
H          -0.01494703792786   -2.57827943925560   -0.71148180943023
O           0.07969301050560    1.78275736241524   -1.22783641972238
H          -0.09449731220306    1.18942784597020   -1.96595587097510
H          -0.69308952240007    1.64958704604854   -0.65020515157408
O          -1.01860265124738    1.98579140751450    2.46199660954851
H          -1.52523419843175    1.61039974164098    1.70893282511400
H          -0.79826017253263    2.88352276495008    2.20493750435620
O           2.25970246653953    0.97297256209672    0.11126277719172
H           1.56321642157429    1.40828441617215   -0.42772149084407
H           2.53055567651367    0.18326437766426   -0.40589078873013
O           2.66287578045287   -1.26086285604832   -1.30387193415388
H           1.79923718347143   -1.72273209052238   -1.42659781518890
H           3.09658757481941   -1.27736071677476   -2.15755643748375
N           0.74380762180298    0.02810715914645    1.98146401656089
H           0.17973147408557    0.82315364191979    2.36279886696565
H           1.19835472402389   -0.49789360680896    2.71912698932987
H           0.06774152937830   -0.57800948189941    1.44960243692830
H           1.46066933735974    0.41917368445835    1.26114294939581
