    26
        -50.47163210  Gyration_radius:  2.39578802665 Dipole_moment: 7.825
 S          -0.86469040582829   -1.07602882714278   -1.15439076036281
O          -1.52233620358710   -0.69026238761274    0.08916100088765
O          -0.31646065761594   -2.39775738123647   -1.13482041671862
O           0.14720867884262   -0.05899792411209   -1.51551598588240
O          -1.95148454392107   -1.00507743465295   -2.28492819875608
H          -2.20937709966712   -0.07447928558337   -2.27968045986994
H           1.52208484700755    0.05141343196161   -0.73272819539044
O           2.34766867192185    0.16881761371438   -0.19006109965248
H           3.04247852833049    0.39821974141398   -0.80855348865497
O          -1.56917234149828    1.72818742618678   -2.18867785476109
H          -1.40132843709289    2.09496403263540   -3.05847022808961
H          -0.79649186327384    1.15358447846352   -1.96644142195652
O          -1.39929451999039    1.88263688977766    0.61712635733467
H          -1.60009331213273    0.92763070892032    0.48545584991061
H          -1.50385789950978    2.26574472775475   -0.26184442232242
O          -0.16887061355982   -1.20970805493217    2.33387460716395
H          -0.85449578163941   -1.15323505520161    1.63830823296148
H           0.51287251138094   -1.81012556154066    1.94385394642143
O           1.58152647273973   -2.41165999152109    0.76624596342795
H           0.93796258266762   -2.59462968548937    0.05439332897592
H           2.10721374126783   -1.66280219788829    0.45616519825605
N           0.81510824124556    1.12467149255136    1.85230264181713
H           0.42546029456486    0.15298219766470    2.18232031645900
H           0.00026652102591    1.59657693383004    1.37148065682982
H           1.16340317225847    1.67503997196405    2.62849553465456
H           1.55469942596027    0.92429413010635    1.15692890732573
