    26
        -50.46493910  Gyration_radius:  2.58700063248 Dipole_moment: 0.622
 S           1.31199232929927   -1.59230539221216    0.41208984893687
O           0.84744362257643   -2.16913156117817   -0.84438094579285
O           0.21363939793002   -1.12799291726565    1.24176103997468
O           2.34157560068966   -0.59444424515067    0.20130544529358
O           1.98605628628693   -2.77242785907803    1.23087804140521
H           2.77961569393544   -2.97970877575399    0.74557898951689
H           2.00652218181420    0.68610502720669    1.32540008265877
O           0.06026377312209    2.86563782047429    0.45991136774069
H           0.53580484647796    3.69621980865482    0.45093897414196
O           0.80394712377020    0.25678750186797   -1.97207421814002
H           1.53718953139340    0.66927586277392   -1.50587532783945
H           0.90475761594768   -0.69437364214818   -1.78108153281008
O          -2.54141594685315    2.27242587748832    0.56189317029385
H          -2.76630877714683    2.26013535404532    1.49362071629381
H          -1.63791685389582    2.65193071208288    0.50037404780068
O           1.43789002486696    1.16305457673962    1.95986409551199
H           0.80711426997554    0.47837136291214    2.21851710259267
H           0.58112364474034    2.25528992868078    1.03838559628309
O          -1.72945284733964   -2.38630134245625   -1.57193139050566
H          -1.72386547021730   -2.68511059009555   -2.48252193413175
H          -0.80189578603128   -2.44946678943108   -1.26275367034511
N          -1.42081911959940    0.05490661464525   -0.48485326981650
H          -2.03259006920808    0.83296020887951   -0.15544778632002
H          -0.68595833067574    0.40504471096419   -1.14185975831861
H          -0.89647249608541   -0.37412173097929    0.31462987214096
H          -1.91824024577454   -0.72276053166944   -0.95236853654694
