    26
        -50.46051247  Gyration_radius:  2.40443027253 Dipole_moment: 1.284
 S           0.32039738752598    0.95747407954786    0.94280425038721
O           0.98388417095568    2.25676071469930    1.45866436237810
O           1.36686812665709    0.01848712276910    0.55791528179664
O          -0.52642409310528    0.43204341699526    1.99743496756555
O          -0.49013893037144    1.31770722255795   -0.23351002647747
O          -0.10936615594504    0.35439056442607   -2.63727742805857
H          -0.21712561085244    0.81403524102393   -1.77155011425143
H          -0.97205791464092    0.37605281615525   -3.05540739927694
O           0.63865185402820   -1.73960839477778   -1.18913361630366
H           0.39898523676629   -1.10455173285646   -1.90587868095601
H           1.04534868999362   -1.16143104966779   -0.48708426100359
O          -0.45103709207969   -2.13223757894581    2.38635658730959
H          -0.35398116389618   -1.14848616672917    2.30505728412702
H          -0.92991758180201   -2.29104812582126    3.20158986737596
O          -2.59045823983472   -0.14222316573828    0.16631808366094
H          -1.85580148911775    0.48497879486036   -0.05749211747367
H          -2.74336431268849    0.01800321572735    1.10212342998436
O          -1.39756653235400   -2.39660271786282    0.02942256505826
H          -0.48335479997626   -2.17230737415610   -0.58327764505057
H          -1.03842298128003   -2.45408976674412    0.97930310178122
H          -1.96048720959386   -1.53809532943821    0.01642842826162
N           2.35708103455045    2.31195435050387   -0.76052070818283
H           3.28428272684538    2.65144106107360   -0.98205586727179
H           2.40044703524219    1.30801936825294   -0.60832236557499
H           1.56725322471582    2.50230990832186    0.68604313194294
H           1.75630463025431    2.47702352582920   -1.55795110173512
