    26
        -50.47250307  Gyration_radius:  2.48721093472 Dipole_moment: 2.880
 S          -1.32304232056050   -1.79308219454453    0.42262447304154
O          -1.59608797338583   -0.54140904688477   -0.25731953572879
O          -0.88887911759615   -1.58262817547310    1.79836216665275
O          -0.41895574265091   -2.66195292187304   -0.30636359844910
O          -2.70557964195843   -2.56255749593330    0.50126032403026
H          -2.42194955348700   -3.41612980733268    0.81025595557777
H           0.96240932075569   -1.94997033462837   -0.65882497787281
O           1.79076553119867   -1.47129551006929   -0.92507990470093
H           2.46036401046884   -2.14719756060302   -1.04000583662262
O           0.60636969268098    2.34389407899380   -1.31534193033121
H           0.76120166581248    3.00076264710780   -1.99435085533342
H           0.34118308994195    1.50302002006083   -1.78986290523185
O          -0.05199139909046    0.04871000118866   -2.35605482128360
H          -0.73832035642396   -0.22030732869584   -1.71279269874988
H           0.70509343038561   -0.51991398232759   -2.15268080845920
O           2.15476855568518    0.87580485305342    0.42680011484391
H           1.76563024103999    1.51377511539542   -0.19819357812955
H           2.12533815332495    0.01522446299644   -0.03263615936569
O          -1.48585427266292    2.06026481743504    0.45564061391694
H          -0.82457135599791    2.35670394643058   -0.19632510017576
H          -1.78480966751780    1.19149795985253    0.12915228042267
N           0.12139589500636    0.80026511659096    2.10963331853339
H           1.02718954625428    0.81814711326876    1.55478655071441
H          -0.56552003503751    1.42983635874581    1.59455480044570
H          -0.27794095725363   -0.18179935047681    2.06241276048869
H           0.26179325098378    1.09033722756649    3.07034935113230
