    26
        -50.46933813  Gyration_radius:  2.55078874887 Dipole_moment: 4.232
 S          -1.00239872118827   -1.41164131352298   -0.91793552621037
O           0.34517975452804   -1.42565341685988   -1.43272942418514
O          -1.46124552414099   -0.05105029422748   -0.61960344864158
O          -1.22233337948962   -2.29437265649154    0.21171557120620
O          -1.93794223750085   -1.94242666653949   -2.08125736129061
H          -2.73997110482320   -2.18079882564680   -1.62750077317871
H          -0.31377304179864   -1.96212041386259    1.48866201283760
O           0.28583233459900   -1.74837392267205    2.25032432551456
H           0.30368444335942   -2.53460749136998    2.79865798275601
O          -0.17542049379511    0.92793264994052   -2.75292264738932
H          -0.85810932763337    0.70480499593501   -2.09749208720442
H           0.38493617739466    0.14222076403330   -2.75797977957288
O           0.90041088479186    3.03746280546116   -1.49155273093384
H           0.45046667340835    3.82763741116873   -1.79193130755927
H           0.59131575680310    2.30664960400383   -2.07678839532753
O           2.15540995156691   -0.79671914265757    0.43287859610715
H           1.68587675177562   -1.14913906410459   -0.34764050051697
H           1.76397862043916   -1.25379272804842    1.19384845601292
O          -0.37798123067258    0.79726502596460    3.03546931793403
H          -1.33571045053168    0.77353417455716    3.07047538596898
H          -0.09032791287639   -0.12332862842952    2.88236704748961
N           0.53660755635455    1.30053919384419    0.53589761732539
H          -0.28672656414734    0.82314792096681    0.09664932357924
H           0.75789351553079    2.14575711458751   -0.02419384937940
H           0.30317101777031    1.47727698203329    1.52763134084044
H           1.33717656023986    0.60979595193770    0.49495088382880
