    26
        -50.46802582  Gyration_radius:  2.56441037909 Dipole_moment: 2.921
 S          -0.10942323513811   -2.12777463537337   -0.02495932898803
O          -1.30356179328282   -1.87074568180056   -0.78888186432659
O          -0.07479477412958   -1.38581923836736    1.23275909867398
O           1.11654060138741   -1.92755099146641   -0.79119857665297
O          -0.14244280539382   -3.66291046831358    0.36406157136374
H           0.69746724214022   -3.82722525718075    0.78366681011660
H           0.69644833354280   -0.56082168220770   -1.60273220654130
O           0.31564175444283    0.27924595705254   -1.95136805903967
H          -0.28694861105345    0.01038436749507   -2.64810875429457
O          -3.35824365281841   -0.24752291376107   -0.27355464628098
H          -2.70453426489878   -0.92132564380297   -0.55663099372239
H          -4.01517367564684   -0.71638039310239    0.24259857992718
O           0.25184878898532    3.11103214246755    1.18380305833583
H           1.03891928680998    2.75352784003102    0.69864482392518
H           0.16985983570841    4.02912753432726    0.92433512438986
O           2.51254229263066   -0.43402292399982    0.94740772403509
H           2.23008117555060   -1.02082176453764    0.22335465612699
H           1.81546568825363   -0.53022795275227    1.60577769088818
O           2.07774662018209    1.91733967187728   -0.30798325155443
H           1.66785124971633    1.54953605365009   -1.09872498767615
H           2.40013607730374    1.14088116861526    0.19804109830616
N          -1.01290927827111    0.91439921992976    0.34119267187042
H          -2.03600459601992    0.79610031130977    0.23546304211068
H          -0.65881981082923    0.08857481688982    0.88308271645010
H          -0.57068581405794    0.82742701623145   -0.60022245962451
H          -0.71700664511843    1.81557346680160    0.78017648216903
