    26
        -50.46960851  Gyration_radius:  2.44492451418 Dipole_moment: 5.138
 S           0.11896106297350   -1.05285571334653    1.13899957049131
O          -1.32748447823622   -1.20953399684519    1.12596308719665
O           0.54890216349149    0.16928346630401    1.76856647211056
O           0.64199237491115   -1.16203174397944   -0.24329279103569
O           0.73764047397829   -2.23716232815721    1.93870099543134
H           0.55898176671751   -3.01920335008041    1.38054384827045
H          -0.16020023588992   -0.28919151531193   -1.38219520470958
O          -0.65580658426162    0.26169867641147   -2.03570875278868
H          -0.57416547162754   -0.18492058111241   -2.87971057146249
O           2.58396866697092    0.71613848113574   -0.03979616693419
H           2.47464435669266    0.89417695572634    0.89958159356718
H           1.99198760476319   -0.03713172772034   -0.20473859488597
O          -0.58689903449574    2.51267028895360    1.11067363681387
H          -0.02466049995414    2.71558745909598    0.31936164240024
H          -0.11711986252616    1.78601518708723    1.56453283306472
O           0.47739431945894   -3.79009593246599   -0.19098832483154
H           0.50828192588135   -2.85629571647887   -0.47644359727633
H           1.30295522953572   -4.19253620444029   -0.47051949967909
O           0.84500287837968    2.49955266874232   -1.11139446008807
H           1.62494722131503    1.99422715229440   -0.80032607782885
H           0.33690492295726    1.87353751372167   -1.64450304711498
N          -2.30175803510292    0.93073501851593    0.03510926601459
H          -3.29593600489013    1.12032100864309    0.08925869915715
H          -1.97923037782321    0.82061249535830   -0.93720213501263
H          -1.69004411537167    1.70890451477994    0.50844248384218
H          -2.03926023785951    0.02749790316936    0.53708509528826
