    26
        -50.47191557  Gyration_radius:  2.41627307006 Dipole_moment: 3.502
 S          -1.11876444301975   -0.40549232727250   -1.51199235375503
O          -1.71247931440609    0.57269490830668   -0.60977501830798
O          -1.62242816257182   -1.74148309586884   -1.31446198628722
O           0.33701313404399   -0.32489115757444   -1.48176886317593
O          -1.54421660320303    0.01085413008210   -2.97704408800666
H          -2.33126306462727   -0.51414079217016   -3.06382266493381
H           1.21638655165464   -1.35422053568811   -0.58658532586950
O           1.77580425527749   -1.87185527916516    0.04621431309636
H           2.44843425808641   -2.29992739905642   -0.48513973776164
O          -0.84206033161702    3.06233140105749   -0.36196861444702
H          -1.28566605439712    3.39398742471929    0.42036941101360
H          -1.23894619538540    2.18383069352448   -0.54332404723207
O          -1.00383531921163    0.00563970263423    1.88463306657241
H          -1.03275147439764   -0.97883283985055    1.81819035479554
H          -1.37796781314452    0.30124937697635    1.02843088916405
O           1.55454779226776    1.87752151093332   -0.57054397104737
H           1.19871336673230    1.14005838917676   -1.10585057030869
H           0.81136344434177    2.51263163879448   -0.51735403253107
O          -0.77780812989820   -2.50987466916499    1.10433873170887
H          -1.21168267695136   -2.36676574688214    0.24026695059135
H           0.16098867592954   -2.60426486318672    0.89859908503392
N           1.54404266763184    0.38831986691854    1.56615937633610
H           1.62866362069839    1.10018583859090    0.76207673458138
H           0.48880245715719    0.28830284677605    1.79412867310691
H           1.85063273085072   -0.52380579156963    1.18664509059848
H           2.08447663816984    0.65794675891639    2.37957860706027
