    26
        -50.46617901  Gyration_radius:  2.60172042017 Dipole_moment: 3.591
 S          -0.17126503246978   -1.97761200340009   -0.63316141340789
O          -1.39627935095306   -2.03536802592201    0.13381400645087
O           0.97737833508154   -1.52062543697852    0.12753085732652
O          -0.33983998498445   -1.21963023038357   -1.87207157855800
O           0.15204657669943   -3.46975899831033   -1.06114204349146
H          -0.71975672461921   -3.82349572220948   -1.20238910740213
H          -1.15799520827987    0.19477600129980   -1.83201916282877
O          -1.60793403935984    1.07209445147360   -1.76992466728742
H          -2.06627257568704    1.19309545468725   -2.60262873683186
O          -2.25610381781180    0.38118149756841    0.83826478175779
H          -2.10303813676475   -0.57195473640144    0.66607100147161
H          -2.31929652609630    0.78364041969193   -0.04219981335538
O           0.79539101969632    2.24044973145048   -0.97492289549751
H           1.37733544803599    1.58911310527987   -1.42488241309055
H          -0.08639607131289    2.08636700020647   -1.35197006026342
O           1.26937612375412    0.87969042133849    3.86052867999133
H           1.87977598976503    0.14994807159551    3.98727262618227
H           0.59270972354433    0.81215263084078    4.53759001072066
O           2.01164060361620    0.04438270610785   -1.95100959507215
H           1.17490163172122   -0.43318627348580   -2.10827525832968
H           2.41019401300419   -0.43024654648259   -1.21580536817479
N           0.32878603739751    0.82508065332277    1.20202110004675
H           0.66723932709380   -0.11087361922460    0.87838708237571
H          -0.72627921861630    0.76312135539670    1.22684246475667
H           0.71524708367555    1.04596688916367    2.12609851486505
H           0.59843475388203    1.53169118335939    0.45798099765060
