    26
        -50.45381452  Gyration_radius:  2.647688708 Dipole_moment: 1.727
 S          -0.75877741110740   -0.26252469125697    0.04028584165915
O          -0.83930427680565   -1.76976587506731   -0.16900817575637
O          -0.92994854937393    0.39880779978216   -1.22303170376916
O          -1.92558416265295    0.04621199360948    0.96357113684044
O           0.48588898518002    0.05959830926027    0.71711635887014
O          -2.13673915491047    2.78344083052396   -1.38850130846693
H          -2.95402679589972    2.64149460802678   -1.86966274015290
H          -1.62777009853600    1.95242868231431   -1.46208560698954
O           2.41346846540294   -3.23831095273633   -0.60310846552819
H           2.22963996019293   -2.39992799111487   -1.10052221766604
H           2.01761983756141   -3.94784240039810   -1.11183536045908
O           0.50119466179982    2.51611472207831    1.78470882241234
H           0.81219047202064    2.42893600770136    2.68771116711345
H           0.61154094606592    1.63984046243564    1.36635179145419
O          -2.10690412489665    2.50205777304712    1.25064997223534
H          -2.06358442367978    1.10131623361420    1.13085866686406
H          -1.18201636709915    2.71495995226043    1.51225175127956
H          -2.19376255880617    2.79728216470490    0.31317929428350
O           0.89785996058998   -2.56254526892256    1.44124777641155
H           1.16165044771027   -1.64773606318651    1.60533872367930
H          -0.21249767048365   -2.21290843266483    0.53260045068541
H           1.55804382862314   -2.92227881403504    0.79014962266508
N           1.66999789449747   -0.91342854830837   -1.75124432514513
H           2.24124868067754   -0.40854575119155   -2.41873820701719
H           1.60264214175928   -0.34284614980674   -0.91421478433308
H           0.72792932214952   -0.95382861069364   -2.12406846118213
