    26
        -50.46147056  Gyration_radius:  2.59177103409 Dipole_moment: 4.230
 S          -0.01305096542825   -0.56283024957764   -0.49014500690271
O           1.15718281255523   -0.80428784853158   -1.35168195679052
O          -0.66295955353462    0.73263265761327   -1.10127879023949
O          -0.98255140866934   -1.63114972434791   -0.52411334887578
O           0.42346287304629   -0.20505941933221    0.85225199062794
O          -1.67305813092664   -1.39452700148545    2.05543734422164
H          -0.87711355600589   -0.84441089610376    2.09155760813879
H          -1.59186984923412   -1.80910619591627    1.18035061659758
O          -3.69737207647458    0.24020325610071    1.48015456814113
H          -4.50499997941716   -0.13192340791232    1.83760624208021
H          -2.96163663130965   -0.32950900157502    1.81129513470464
O           3.46689374677800   -1.02609149698753    0.02998905118890
H           2.65805406070082   -1.07212937731700   -0.51791464722392
H           3.43835546780066   -1.79102954688150    0.60654210155300
O          -3.07765709756488   -0.04797092437402   -1.10481063096760
H          -2.69097325820211   -0.93435481283497   -1.03743832055202
H          -3.41464264084075    0.16453778523956   -0.20299485447197
H          -1.65867603044032    0.55370675368928   -1.14878918741946
O           2.54988613277231    1.32850004029817    0.94557480848577
H           2.23522685672768    1.69905269595055   -0.46531608505388
H           1.70172067222810    0.85775637105360    1.12484853895412
H           3.17634808422209    0.58996726645979    0.80162087279331
N           1.86132271725015    1.66027049978641   -1.50091078279179
H           0.97480029629835    2.15720064174497   -1.57293471525152
H           1.62506265875825    0.61559303444344   -1.61507020306561
H           2.53824478890706    1.98495890079570   -2.18383033788565
