    26
        -50.45488103  Gyration_radius:  2.47420472399 Dipole_moment: 0.413
 S          -1.37750691232220    0.08595819942447    0.15026307634914
O          -0.92163126117814   -1.22152802757890   -0.27520506518379
O          -0.32139686474331    1.06826183521972    0.18154641249074
O          -2.51369871773122    0.55560079397051   -0.74750472137411
O          -2.03922800085639   -0.01122011566834    1.51142933459667
O           1.12866922809464   -1.90228398359238    1.25623762816266
H           0.42595128899656   -1.69539651084286    0.60465285338102
H           1.12784381861492   -2.85609009335993    1.35908836915208
O           0.27983434974697   -0.96570357136416   -2.69885975527021
H          -0.17399812010551   -1.32739374211915   -1.92098829793210
H           1.10614528574992   -0.57815310083262   -2.32033557402422
O           0.74803588723697    1.99714231847662    2.45093672609158
H           0.44744158609727    1.77031046267986    1.54901807786008
H           0.25158466005424    2.77393384595804    2.71405372275468
O          -1.45683900497877    0.91066251825673   -2.99854496257938
H          -2.05562331925340    0.63768970683452   -3.69794872327845
H          -2.11218281761060    0.76503770423198   -1.67850587128993
H          -0.71427911157492    0.22383603948337   -2.97734130636606
O          -0.15770930225310   -0.42092831749719    3.08020647332198
H           0.27644562336380    0.46369774962694    3.06380820354042
H          -1.29139124716695   -0.21246886767521    2.24872508287028
H           0.42813081158667   -1.00899787526215    2.55124968296274
N           2.14672609227599    0.11819253238050   -1.09048652787633
H           1.40008546994291    0.65239765310950   -0.65222672793038
H           2.92268741015800    0.74705125914793   -1.25462268653810
H           2.44590315785464   -0.56960839300569   -0.40864541389850
