    26
        -50.46596278  Gyration_radius:  2.52199772994 Dipole_moment: 2.182
 S           1.14006366845236   -1.82928987748370    0.15856022476994
O           1.32362911267454   -1.13505887106665    1.43140842840500
O           1.17911573755474   -0.91022945041697   -0.96399585951924
O           0.00210852549066   -2.71872392825051    0.16643892065329
O           2.42179529719626   -2.75307082866373   -0.01565065847914
H           2.21959822516936   -3.50886367168258    0.52664074114307
H          -1.46024192916366   -2.00424238869824    0.05743806559104
O          -1.08819397825105    2.53231726299912   -1.56524617222755
H          -1.95413966153797    2.87060736650151   -1.79477724010246
O          -2.29173860846930   -1.47302612732630    0.01812648596292
H          -3.01324383962694   -2.09237603446653    0.13831745009212
O          -0.07745875702763    2.56736381663290    0.88703483889047
H          -0.49240612023848    2.67282547848024   -0.00081339307178
H           1.16595189240753    1.86696458784199    0.60058830290960
O          -1.01781311540848    0.24163015689021    1.78300189962529
H          -0.21807280677953   -0.30839468851730    1.81879892731484
H          -0.56435000361331    1.82969571290680    1.32296013469681
H          -1.64079000823483   -0.23942739258278    1.21643473523472
O          -1.15311907555998   -0.06771364819539   -2.07695822180981
H          -1.09182890364994    1.57559665477800   -1.81821299257591
H          -0.27276540672438   -0.41095562327651   -1.84867127277979
H          -1.75564227668825   -0.49848865937645   -1.45092902928704
N           1.99982853414167    1.15953188006833    0.39808746376006
H           2.90778255602191    1.60927441687398    0.37687454151727
H           1.79334216235133    0.62988689747724   -0.47176709262595
H           1.93858875950934    0.39416696854453    1.10631074191440
