    26
        -50.46742655  Gyration_radius:  2.40196544369 Dipole_moment: 4.781
 S          -0.87317953869884   -0.15501731435279   -1.47493541028435
O          -1.00504838476322   -1.09801410252404   -0.21878731202457
O           0.40901409166280    0.53656505100816   -1.34269177483383
O          -1.98752904568173    0.76118627708145   -1.48090927587132
O          -0.84417951859399   -1.11299284378804   -2.57740323288940
H          -0.02001347096828   -2.14319252670224   -2.00399206171307
H          -1.90210058766972    1.85243894204461   -0.30101962719875
O           1.43509103614616    0.40688547220931    2.09742466496826
H           2.05177803624658    0.66296623147424    2.78401548134198
O          -1.84446980212536    2.43469101165957    0.50200076869342
H          -2.65642128210828    2.94371946492904    0.51198587777997
O           2.05251329096478   -1.09096462089318   -0.17293322819378
H           1.58425313073094   -0.39228693363593   -0.69200546672304
H           1.89368798679075   -0.82640913157326    0.74926295957905
O          -1.29463700977268    0.21493469546301    1.96188181364154
H          -0.35096636616131    0.25411339697253    2.20133350772020
H          -1.53526503689432    1.09672321160564    1.61756278661059
H          -1.18852158770502   -0.59016132382412    0.63416759024715
O           0.93116472132485    2.40045734889906    0.47509499898123
H           0.03083773668791    2.72285163564856    0.62387587003026
H           1.33097280898254    1.20467339122915    1.50466733472754
H           0.84833664596974    1.84000872881542   -0.32306669964288
N           0.59705539129026   -2.85248273276462   -1.42039302596018
H           1.11748714558023   -3.48271845111994   -2.02252986284808
H          -0.03139051576795   -3.35924097946822   -0.80344202231123
H           1.25153009453306   -2.22873391839661   -0.82916463382505
