    26
        -50.46742657  Gyration_radius:  2.40196125069 Dipole_moment: 4.780
 S          -1.24909146125440   -1.17582185319358    0.14397328626630
O           0.13123159691235   -1.37807509014491    0.58395838218744
O          -1.22224039705730    0.02384752882327   -0.87829630982664
O          -2.12336911311228   -0.82802097130385    1.23753965392792
O          -1.70328775247596   -2.28336802010147   -0.69336014846977
H          -0.97391848741555   -2.01023332906030   -1.90272811549192
H          -1.51286268058433    0.32718056692507    2.17750515230001
O           1.99455462992343    1.62598601756811   -0.05546762642543
H           2.81010155546310    2.12236632341512    0.02065235020054
O          -1.12951603379603    1.10640916948983    2.66021303234585
H          -1.79258259678128    1.36586744640750    3.30169918609341
O           1.67663859162769   -0.78991973423720   -1.41219327772432
H           1.23240250681520   -1.12521357521017   -0.59552189123451
H           1.82527424993709    0.15050414772532   -1.21434340178478
O           1.47572830400698    0.29946143118646    2.14264894985175
H           0.72895849889379    0.70941253173991    2.60187395342778
H           1.07447531386336   -0.46719188761763    1.68524232029333
H           1.89403343643991    1.12194288650439    0.80155173730052
O          -0.65474704692906    2.25380928623510    0.24769657657049
H          -0.80168080455043    2.03049020428536    1.18706070792156
H           0.30746398702557    2.21987015555957    0.09768027364323
H          -1.06747702539535    0.91561179748520   -0.43100987807497
N          -0.37433178177212   -1.65497858935815   -2.76228253421668
H           0.52324122155959   -1.24463924644987   -2.32320663752225
H          -0.90141744719047   -0.90922098637042   -3.20765395649759
H          -0.16758124413609   -2.40607621026665   -3.41323179504858
