    26
        -50.46596330  Gyration_radius:  2.5219760219 Dipole_moment: 2.168
 S          -0.74093999661607   -0.66812317316479   -1.91723222834064
O          -1.45523968548845   -1.45970240100205   -0.91802089826949
O           0.65772998908525   -0.50010266584460   -1.56782493541794
O          -1.42652520178223    0.55781458629866   -2.25390294924280
O          -0.73619772586514   -1.54842807633195   -3.24075026136835
H          -1.59508242125393   -1.38143737193745   -3.61573442890672
H          -1.32733601297913    1.75223080318923   -1.14757039919749
O          -1.23093946650423    2.39537001549696   -0.40441798662264
H          -1.78304417628977    3.14712903227625   -0.62522596335561
O           2.28216069576462    0.97391269663060    1.97091369273487
H           2.44479096809625    1.76046279790522    2.49227269354390
O           0.43759914964784   -0.84310481685262    2.54671898767596
H           1.14966424768438   -0.16743054017646    2.45693540713018
H           0.63337207456665   -1.69882417814217    1.38562765173046
O           1.47502119283754    1.81817986171455   -0.40831291232259
H           2.04450766379681    1.29037986737590    1.06386269858440
H           1.31889366660978    1.01900144254514   -0.93926969911848
H           0.60090292581030    2.22882544038488   -0.31880099135336
O          -1.63722547743565    0.20732438041274    1.24741120941195
H          -1.52366437678591    1.08706221872969    0.85558924892771
H          -1.74560752790240   -0.40108593781288    0.49807801158134
H          -0.39245719861622   -0.39536037216576    2.26075213311228
N           0.66171974726425   -2.21433729678414    0.40059064179237
H           1.09919968837850   -3.12761423335516    0.44132806111598
H           1.10538995778620   -1.58719762860289   -0.29910848972870
H          -0.31669267982361   -2.24494444077950    0.03609172591263
