    26
        -50.46596322  Gyration_radius:  2.52197460709 Dipole_moment: 2.168
 S          -1.52777407109218    0.97950161713114   -1.17370832503575
O          -1.87358483360663    1.23716728346183    0.22248215639222
O          -1.06106850244927   -0.38101381796221   -1.36792414870220
O          -0.66593650856660    1.99491440289449   -1.73268865791954
O          -2.89517309423466    1.06895000162745   -1.97921624785007
H          -3.01401471622803    2.00535265611482   -2.10247281682876
H           0.89687034011242    1.93176678915713   -1.27025345660815
O           1.80858240994575    1.82330654543202   -0.90663545109755
H           2.31551571111013    2.57322376590429   -1.22173917313419
O           2.00310847846359   -2.37418226767247    0.62555141829836
H           2.95204484212188   -2.46072657909292    0.72027547503651
O           0.42620706585661   -1.19575668701049    2.40338153651940
H          -0.82487211949512   -1.31814391018424    1.66986314506724
H           1.07060963933581   -1.68707900349701    1.84215977642814
O           0.54496235950971    1.30968205244911    1.50605146716470
H           1.16754321376575    1.50091092311786    0.78760589068850
H          -0.33990927864605    1.43900936824621    1.12702925456898
H           0.60147588768638   -0.24040849929350    2.23651346327054
O           1.60879363384636   -0.86744387797397   -1.51918832626346
H           0.64517369790460   -0.78841498903860   -1.61982367453015
H           1.91149324234251    0.03489048953028   -1.33231044875041
H           1.85618816642258   -1.86716645528297   -0.21150142655197
N          -1.71527800984652   -1.24225608705811    1.00770844328306
H          -1.41474029651905   -1.35259131009200    0.01920063380299
H          -2.01742808041514   -0.24231505800239    1.00485839735919
H          -2.45878918734024   -1.88117733291991    1.26478110537811
