    26
        -50.45538179  Gyration_radius:  2.56579596269 Dipole_moment: 4.089
 S           1.00127324940471    0.29641389540239   -0.09955597830978
O           1.47410252045657   -0.75951058467956   -0.96095796155297
O           2.13480997744449    0.74773523818164    0.84734746748245
O           0.55762856010619    1.48975874991289   -0.81628028003576
O          -0.10266881505689   -0.18328295962267    0.76839939000244
O          -2.92925450987398    0.02160525210930   -1.73315937368261
H          -3.38564495547841    0.64829414826118   -2.29831007776531
O          -1.25863132270834    3.12181147567336    0.03644748955086
H          -0.88955274788521    3.65366953908712    0.74391920554520
H          -0.49790483741722    2.62249482127712   -0.36035122181754
O          -2.31403262181891    0.87166313220268    0.57530193275161
H          -1.36845986530241    0.37284939501852    0.71641878313515
H          -2.03631095117976    1.84368422366223    0.41415767475502
H          -2.65461421348168    0.50617776325396   -0.33095324525697
O           3.28362201646165   -1.52093244218458    0.87543578933978
H           2.63408546593268   -1.99967506565999    1.44772193786833
H           2.92387209964687   -1.59990949787022   -0.02112107663670
H           2.71318547009346   -0.07387575609225    0.96601459703325
O          -0.49881102951102   -0.05791034550756   -2.68750695081506
H          -2.03058000532221   -0.11627932214942   -2.14317870587212
H          -0.12529096384745    0.72254626438528   -2.24001754013396
H           0.10522096245976   -0.76002055119179   -2.41067374875551
N           1.08417897219671   -2.44842568962937    2.11484029413654
H           0.55714985891008   -1.69228866737435    1.67881975619859
H           0.94306576861056   -2.38452471252131    3.11512594876855
H           0.67956190715672   -3.32206830395765    1.80211591409378
