    26
        -50.46596329  Gyration_radius:  2.52200987301 Dipole_moment: 2.168
 S          -0.46244518281226   -0.60534312724588   -2.02247715240956
O          -1.41191446215046   -0.53662561632815   -0.92684352110813
O           0.73801244341284   -1.35066074113180   -1.65008719876660
O          -0.16258655890515    0.66696533268651   -2.63705154595738
O          -1.18050579267381   -1.47700916275513   -3.14117393192698
H          -0.70449011725959   -1.24860050231348   -3.93327327481932
H           0.32936949671483    1.84574649992576   -1.62280919487555
O           0.64378849989322    2.47680694568269   -0.93131896064513
H           0.92675886585612    3.26619198691643   -1.39557452328207
O          -0.78112498101252    0.80390379196642    2.96414029581593
H          -0.65638417076723    1.57452628204091    3.51867874146137
O           1.15293906050490   -0.88441384051624    2.29701724474408
H           0.37142428114311   -1.74588224590655    1.42166159996029
H           0.48387546482274   -0.25908750361400    2.66165354865493
O           2.04285962512980    0.31342416002116    0.09033920613740
H           1.64193204850302   -0.37886149483211    1.60670420255832
H           1.73287946537397   -0.28205419647470   -0.61162792982202
H           1.67764424932563    1.18523792640936   -0.12627850616327
O          -1.53650805323237    1.71401302337778    0.59197182843570
H          -1.12611794180321    1.14067942073229    2.09991966434238
H          -0.79342441708130    2.18349653793528    0.18191596571558
H          -1.67154454472349    0.93020368877152    0.03308110884900
N          -0.19050576251387   -2.25717229407317    0.60953525060617
H           0.40004654537686   -2.21821155349151   -0.25116832693970
H          -0.98878061181898   -1.65856396956552    0.31934210229405
H          -0.47519745929737   -3.19870936821612    0.85372331714490
