    26
        -50.46596335  Gyration_radius:  2.52193849249 Dipole_moment: 2.168
 S           1.77854994610217    0.49261528308634   -1.12446188958896
O           0.73150587326856    1.42697483707610   -0.75391816483721
O           1.23222540027036   -0.70855128855953   -1.75207784613061
O           2.71744092510784    0.19407821354669   -0.06822422189891
O           2.61170985953655    1.23041774722565   -2.25942702378347
H           3.44198370334381    0.76480670788865   -2.25696634512983
H           2.06474803338283   -0.31774179694493    1.33633390222434
O          -2.64559579101333    0.73719919523269    1.58019307851159
H          -2.97075670739652    0.60236828240427    2.47069498245711
O           1.57296935378910   -0.64501784170508    2.12767074136039
H           2.23611024496728   -0.92772910031055    2.75933501107572
O          -2.43716353459798   -1.17899715143380   -0.24219883497382
H          -1.83603461701440   -0.38076428300222   -1.30063715988758
H          -2.62726851923383   -0.51836603119393    0.46419113835489
O           0.02080795049896   -2.04573032446291    0.30829084469819
H           0.53225141267342   -1.72310216514481   -0.45181142174625
H           0.46051297187930   -1.68221748844874    1.09243213193964
H          -1.63042794859207   -1.66139211024213    0.05401039413201
O          -0.12466103598853    1.51882808490353    1.82389232858940
H          -1.72638025290735    1.09143710372048    1.67456350415689
H           0.40543136262315    0.77891775668256    2.15888789090403
H           0.20041713468043    1.66558043931652    0.91958636155763
N          -1.19850864842351    0.19504488226719   -2.00690219367235
H          -1.69091257828287    0.48216375046357   -2.84489439768393
H          -0.35278452514297   -0.38426625381525   -2.20716496339175
H          -0.76617002351831    0.99344353142818   -1.50139784722674
