    26
        -50.46742649  Gyration_radius:  2.40234353038 Dipole_moment: 4.775
 S          -1.30494792096618   -0.21987969760691   -1.10095851661165
O          -1.09677458136752   -1.00368295295643    0.25072737945994
O          -0.00290758675631    0.34149761863931   -1.46049886560012
O          -2.29956950763411    0.80362094264158   -0.89069470096724
O          -1.69030174250706   -1.28828763116267   -2.01987060274392
H          -0.79848883897900   -2.33195332970842   -1.59253319328732
H          -1.77045661939153    2.00094104984431    0.04658130282344
O           2.05097727160903    0.47795166988870    1.48341146485218
H           2.86749320515360    0.74105303095377    1.90921803439163
O          -1.42219571940195    2.65690816933262    0.70640375064508
H          -2.15251524694700    3.24828031243247    0.89453539792489
O           1.81303582343565   -1.31595287141553   -0.63993413992309
H           1.25250319434473   -0.63131760594840   -1.08016060853948
H           1.97405619921815   -0.93836128710414    0.24154754043343
O           1.19355307724289    2.32601100841798   -0.16325801188790
H           1.81862687295601    1.21304275663070    0.84770339361775
H           0.82467983891814    1.69417614301690   -0.81332049699923
H           0.41049203303374    2.75625862683907    0.20868493043264
O          -0.58770675691365    0.56096180996491    2.21417361885191
H          -0.96398114173223   -0.39002228032747    1.04131210314086
H           0.38363488000437    0.52553084254086    2.14538679025809
H          -0.86559338170291    1.42101567193525    1.84405615968955
N          -0.07708293419005   -3.03662561934374   -1.13611484006476
H          -0.51071716838360   -3.40774955920707   -0.29560665495219
H           0.77042711117001   -2.42631042345310   -0.86112097671182
H           0.18375962981093   -3.77710639476715   -1.77967025823929
