    26
        -50.47250318  Gyration_radius:  2.48727203178 Dipole_moment: 2.882
 S          -1.27152584109171   -1.56409176296994   -1.03955469708646
O          -0.21594185960454   -1.68948249455376   -0.05284210780023
O          -0.80827115684981   -0.90132202076702   -2.25256878329272
O          -2.48206616649091   -0.95929824471711   -0.51763084968894
O          -1.66172120870129   -3.04165103985628   -1.45701395367006
H          -2.44151179398446   -2.88437148287740   -1.97819595562685
H          -2.21951573357178    0.46396322327518    0.14906284599097
O           1.71444699639062    0.84278820197402    1.98583580158956
H           2.11566117410135    1.01977853603447    2.83683234797529
O          -2.02813972189859    1.31929717867642    0.61592629940776
H          -2.84375906963117    1.82179312760651    0.59055261239910
O           2.38736835906026   -0.97974502190053    0.03095608967408
H           2.34459668166285   -0.37805668889606    0.79664711143695
H           1.55365422313112   -1.48429574171107    0.06419222879825
O          -0.56425486843212   -0.39016395101786    2.25543417878439
H          -1.21455440676570    0.26572162516421    1.96420906643950
H          -0.49214194201824   -1.01203192717325    1.50359891058529
H           0.86065435638530    0.35390540510768    2.17144240718944
O           0.44773726012854    2.32083075658882    0.03684108623850
H          -0.47401638628135    2.06009671937815    0.22368828287261
H           0.96907256605380    1.97305895006639    0.78271632164810
H           0.94511392671782    1.38265951094355   -1.15454024137618
N           1.27960114079327    0.58277057103025   -1.76852271607053
H           0.43672670095002   -0.00028008311689   -2.04371514289456
H           1.88900331441739   -0.03912575724156   -1.15582946029726
H           1.77378344552919    0.91725243095276   -2.58752166322588
