    26
        -50.46742645  Gyration_radius:  2.40206663776 Dipole_moment: 4.780
 S          -0.24152341014343   -1.69622890434640    0.16595969908479
O           1.14234103907887   -0.97752536795922   -0.06483684159285
O          -1.27583742998943   -0.75155271447666   -0.25525308733853
O          -0.35388554101731   -2.03927774054996    1.56264868684320
O          -0.15658196133524   -2.82921026521445   -0.75234542818262
H           0.47222281190964   -2.20053744645600   -1.88277256261161
H          -0.54673211507027   -0.74915689694620    2.50601138147035
O          -0.56499951597309    0.08706646540085    3.04209138223983
H          -0.52935212692862   -0.19137405052221    3.95845001621582
O           0.11851434374572    2.55916774298456   -0.25020081614033
H          -0.00133619306281    3.50311000713393   -0.35854111309142
O          -0.30951040774604    0.63329495882283   -2.22175455542612
H           0.06237186319194    1.37453492839228   -1.71387856199791
H          -0.84724398481630    0.14667098626428   -1.55033484363725
O           1.49615695534991    0.99629796509593    1.52967603984947
H           0.81133701459276    0.81694338811805    2.20256331582869
H           1.31832960626283   -0.24301607376533    0.60493349248550
H           1.13976399897823    1.68732281757712    0.94245341468517
O          -1.89024368699132    1.48296631558921    1.04166428116509
H          -0.70244495572429    2.22507001968684    0.21109402829408
H          -1.87281178215028    0.64342089881872    0.53888036086930
H          -1.60637405313118    1.22475719840790    1.93012071695552
N           0.98047255549769   -1.58709746028011   -2.65099602738622
H           1.96134064013434   -1.53402647884393   -2.39104607054212
H           0.53467182890577   -0.60724020452503   -2.56274989676513
H           0.86135451641430   -1.97438007844804   -3.58183700117160
