    26
        -50.46742662  Gyration_radius:  2.40211770773 Dipole_moment: 4.781
 S          -0.61025840209225   -1.56933204759648   -0.35739354138821
O           0.79277321005149   -1.27336738439301   -0.06809695373800
O          -1.28158059920974   -0.20240094560138   -0.76436260521224
O          -1.30325686244337   -2.09739743750542    0.79238403217637
O          -0.74181818588251   -2.35360546299313   -1.58282108934327
H          -0.45200685205931   -1.34621890632691   -2.56804030656725
H          -1.03011303806201   -1.24294079679956    2.12886701622798
O           1.11225944133374    2.23727266367858    0.62003812747786
H           1.65258329015327    2.97960573339211    0.89252282422317
O          -0.90261304795282   -0.62236514137392    2.89420370012117
H          -1.46613588381898   -0.95493203103286    3.59444954119583
O           1.52118308621770    0.65374906115411   -1.64047717464759
H           1.31635528991602    1.40656888948358   -1.06018398846033
H           1.42861568193343   -0.12611949575485   -1.04031335807358
O           1.63840703848019    0.10078091834443    2.04141740575907
H           0.90229775486840   -0.07965052043004    2.64329230593883
H           1.49512963945576   -0.52717175795972    1.30452447300495
H           1.40318824790964    1.46107880890011    1.17805787545366
O          -1.43986388434247    1.43059598333455    1.20328680045066
H          -1.41015038121992    0.41898313688646    0.02071826159385
H          -1.28656625857910    0.82896270851440    1.95723842421236
H          -0.59911483657190    1.89479031477776    1.03833172017944
N          -0.23865832152960   -0.46332917007466   -3.20004105669628
H           0.48740760985224    0.10855659926247   -2.64083111744034
H          -1.10125603187445    0.06864097038812   -3.27277158992806
H           0.11319229537700   -0.73075467039735   -4.11399972641075
