    26
        -50.46742660  Gyration_radius:  2.40206172015 Dipole_moment: 4.782
 S          -1.49653952245520   -0.84536464222587    0.09570923790839
O          -0.31318915464118   -1.16582089754012    0.89375143799248
O          -0.99177257634172    0.00386231839868   -1.13264338121974
O          -2.45495171023230   -0.06012500189276    0.83458514038364
O          -2.03271763500347   -2.03849813120740   -0.55470936280718
H          -1.04284168872347   -2.24293018402290   -1.57841049678707
H          -1.77820863435384    1.17784805015309    1.60922326130329
O           2.29720248569209    1.15984388521423    0.06816769547679
H           3.17726597444455    1.50258200352623    0.22727194962918
O          -1.32003755539519    1.97670185857446    1.98214076884347
H          -2.01229038380547    2.51734056708140    2.36552364407136
O           1.67817075101507   -1.43621779044200   -0.74285388606180
H           1.01978812522321   -1.44881673703384   -0.00577908150716
H           2.00580951373853   -0.52071491230300   -0.73276449640534
O           1.06895382313206    0.60231636453520    2.31371918740417
H           0.36735074278638    1.25005578713470    2.47142393182060
H           0.59198755013895   -0.17455144648249    1.95756359252467
H           1.91870931629080    0.93635144310979    0.96551833596348
O          -0.13540452157180    2.31543384173672   -0.43515415798462
H          -0.71748906944973    0.94042766951671   -0.87434354910322
H          -0.50720125142178    2.38756641600595    0.46514068947374
H           0.80159783576015    2.06813804602568   -0.33378120177063
N          -0.22384305630704   -2.25092872590102   -2.32238958581600
H          -0.46401299187848   -1.57285427374707   -3.03992554149360
H          -0.08151773616908   -3.17599216573840   -2.71562170051830
H           0.64518136960618   -1.90565337244311   -1.78136243132015
