    26
        -50.46742659  Gyration_radius:  2.40202406386 Dipole_moment: 4.780
 S           1.62664010858731    0.21589250173412   -0.52050045684336
O           0.47536369537644    0.91167090708674   -1.09528732417180
O           1.05684873412985   -1.04640060781710    0.23239270712104
O           2.33881826903755    1.03510259402303    0.42961190773274
O           2.44898369396411   -0.39298591725232   -1.56310063128893
H           1.60840526108164   -1.49624765211263   -1.94546638276009
H           1.36015178532173    1.75629653012970    1.48467566284801
O           0.71790282299266    2.09327366763069    2.16367639635512
H           1.24990125770777    2.53500721281571    2.82726218014001
O          -2.48545165677828   -0.11747323084512    0.65922001479202
H          -3.42716142657833   -0.03026831726102    0.81049518924791
O          -1.27866381172238   -0.88551347375168   -1.73557503915403
H          -0.69324425987013   -0.09645364045220   -1.62775840300807
H          -1.78881144139137   -0.89875367857498   -0.90786182143926
O          -0.31321025313831   -0.41262238876252    2.30231550043615
H          -1.18349262389313   -0.39019429175909    1.86461197982355
H           0.57491558989982   -0.80779895078021    1.08669422976182
H          -0.03792681101677    0.51567525654720    2.43042910955679
O          -1.35268877028541    2.21969340646878    0.31895280219036
H          -0.81568736192619    2.43785599007428    1.09400240658973
H          -0.69793618705760    1.90099045369126   -0.33499540365586
H          -2.14209340643392    0.80725551115510    0.49934353277348
N           0.87127103562279   -2.30565592070236   -2.10580283715157
H           0.95596830892795   -2.71441382531756   -3.03122791916660
H          -0.09099609058480   -1.83680422318062   -1.95931836323798
H           1.02219353809905   -2.99712791284259   -1.37678902749689
