    26
        -50.46742653  Gyration_radius:  2.40208380581 Dipole_moment: 4.773
 S          -0.98539167964807   -0.71368018068613   -1.21633972437824
O          -0.89858804708209    0.82413975872257   -0.88159176872416
O          -0.47732593161686   -1.42364883600980   -0.04262437967342
O          -0.19408840428078   -0.97339165289546   -2.39422584609039
O          -2.42413340807486   -0.91413504563133   -1.37183643036870
H          -2.91755604147237   -0.09082131489944   -0.30103092654677
H           1.38712502303050   -0.83539503803262   -2.12576077120193
O           1.52918488161505    0.84426799034685    1.88988718120052
H           2.11316830337274    1.00198673170017    2.63240287223466
O           2.34005394266952   -0.64048574512798   -1.92338727533282
H           2.80469057589591   -0.72356456913306   -2.75748148444341
O          -1.11613069602868   -0.02849429489341    2.04624726658183
H          -0.87188133818086   -0.70770913488891    1.37107862315582
H          -0.31379485421131    0.51668296935813    2.11357745084290
O           2.06610525517013   -1.43774391638878    0.72133056527549
H           1.13514788471350   -1.63673562851987    0.49415675607813
H           2.48214365328303   -1.27385215965141   -0.13701432524566
H           1.77173051475090   -0.05618145662409    1.53086333543298
O           1.52040407485401    1.65335135282499   -0.72740860083534
H           1.99774409160845    0.91921891203125   -1.15990422062918
H           0.04897162074561    1.17242675201732   -0.88800798754577
H           1.62484496455495    1.52944645375603    0.23345579764536
N          -3.14199808948550    0.59807745126586    0.53565766443757
H          -3.08821209050379    1.54380657934911    0.16813550172541
H          -2.34116623824426    0.44413656736319    1.24395188544566
H          -4.05104795750190    0.40829748462530    0.94586882096497
