    26
        -50.46742658  Gyration_radius:  2.40209180915 Dipole_moment: 4.777
 S          -0.58883490552034   -0.94029744068771   -1.31569454106034
O           0.40354378803299   -1.43743113272229   -0.19624136172219
O          -0.52847117138152    0.52117061470493   -1.30523059990961
O          -1.90999244690952   -1.43247393768065   -1.01013978661648
O           0.01748304676341   -1.48444490069755   -2.52825208085046
H           1.40960492854049   -1.25614010703284   -2.24681486533488
H          -2.55942382927074   -0.71495691894196    0.27623467490819
O          -2.86505707777823   -0.30875984721658    1.12983891033734
H          -3.69103681985979   -0.74517677540695    1.34372476199327
O           0.77174560212859    1.59700004107444    1.86547639345998
H           0.98947517266896    2.30623846499482    2.47116544328294
O           1.88954703177608    1.19440085624331   -0.65880028841311
H           1.77392578053415    1.26228158843371    0.30426930286395
H           0.96311273914267    1.10755117099412   -0.99192483635518
O          -0.41478846384949   -0.85413946408085    2.16016905396711
H           0.05417788302798   -1.27268863783409    0.73648219240160
H           0.05778457320151   -0.00579701431632    2.24150339605728
H          -1.35128476013990   -0.63945825712080    1.98471124627492
O          -1.49529371345571    2.05464844423175    0.63555499956415
H          -2.17599233406627    1.45623852651961    0.97502601936023
H          -0.07645371553659    1.86828266207325    1.41211577484681
H          -1.21926667564125    1.63883925425731   -0.20631145923774
N           2.43029619224324   -1.04225589266974   -1.87689838621573
H           2.68127438309415   -1.79255804611030   -1.23931366237384
H           2.33662064116118   -0.11980750970787   -1.32282619145849
H           3.09730413112118   -0.96026574132096   -2.63782408982717
