    26
        -50.46742656  Gyration_radius:  2.4021142258 Dipole_moment: 4.781
 S           0.58441628380949    1.28004416523063   -0.99146605747242
O           0.05230347803050   -0.11338862440604   -1.50154234952368
O           0.92730178196206    1.10282080292270    0.41948297764423
O          -0.45245162529465    2.26518948480599   -1.17976449808012
O           1.78272612606965    1.46838165907221   -1.80550334751094
H           2.31054616486087    0.13013050303038   -1.80433596079172
H          -1.69435203222553    2.05824642376397   -0.17650154458658
O          -0.80301815775054   -1.78436867592460    1.67225919116927
H          -1.03511480635191   -2.35248168265638    2.40751679522317
O          -2.47010108436195    1.82162657587574    0.39727278902425
H          -3.16625774948054    2.43543389173901    0.15831510662132
O           1.77661931595265   -1.32796831503882    0.71402686752828
H           0.93242065071157   -1.75542806207163    0.93792858530732
H           1.55993144279460   -0.36447906531818    0.75492865846504
O          -0.84098342560789    0.74075397721413    2.36803942121922
H          -0.09206655233630    0.99724296116250    1.79254921503393
H          -1.60262689871103    1.17904304939341    1.96246787973895
H          -0.80111850485445   -0.85157770308813    2.03064627416579
O          -2.19524818468502   -0.74315811051866   -0.44521146953216
H          -1.83468542883780   -1.25411715114816    0.30204409080862
H          -2.48030263351731    0.11904243003324   -0.08576552119124
H          -0.86469651783441   -0.33591680601597   -1.14295153722225
N           2.57187273821361   -0.94277342586594   -1.73468611845821
H           2.00444419269861   -1.43438256106905   -2.41937031813354
H           2.26754810438499   -1.23803572227655   -0.74107643652390
H           3.56289328257736   -1.09988000867353   -1.88930272276215
