    26
        -50.46742659  Gyration_radius:  2.40206970813 Dipole_moment: 4.779
 S           0.33030535725484    1.59480546892731   -0.55695188682864
O          -0.40914360704481    1.28207075390721    0.66585223523760
O           0.29413468747568    0.29448039487343   -1.44715203298315
O           1.70747295215861    1.93061172649700   -0.28930796390975
O          -0.39900915944065    2.55373192250437   -1.38326409331578
H          -1.44998476426862    1.71305761658266   -1.89034949426250
H           2.41698176349315    0.88855420267449    0.71173118753048
O          -0.54563301725788   -2.28742956321782    1.04632213870387
H          -0.79026835937993   -3.05352783096807    1.56643765109798
O           2.82604356367069    0.16142719480849    1.25117390052476
H           3.75861676462726    0.37486590199670    1.30925279977464
O          -2.30034385226851   -0.37218184518178    0.02914675386682
H          -1.69461930667757    0.30603283385710    0.41627905194947
H          -1.82741974837264   -1.20745119088208    0.18472273646693
O           0.43567845971378   -0.38338259329668    2.55411540561072
H           0.05941703878076    0.34692377192936    2.02218446324061
H          -0.22330521195343   -1.60051169558403    1.69651623001752
H           1.38896831647733   -0.30839271658355    2.40505014676480
O           1.66158057985356   -1.61949389517716   -0.43249648689086
H           2.19814015374957   -1.13658327094630    0.22535480234984
H           0.93018696870118   -2.04014921117009    0.05499510548297
H           0.88637491958363   -0.44060588361487   -1.08931312616449
N          -2.17231373689752    0.94030887317169   -2.21571090893089
H          -3.05061507332612    1.34946438086514   -2.51880528034135
H          -2.30189930851625    0.30192460666748   -1.35406048113344
H          -1.72934638014842    0.41145006734636   -2.96172287382244
