    26
        -50.45538171  Gyration_radius:  2.56579421297 Dipole_moment: 4.090
 S           0.41146529646931   -0.15438377647613   -0.95290817826592
O           0.50931711032293   -1.58224133234678   -0.65936164773944
O           1.71381021122069    0.23427824504979   -1.68650691233664
O          -0.72981292733638    0.19826485569421   -1.76135203371069
O           0.40925549632909    0.60162499797121    0.32406261220627
O          -2.10706968534254   -1.48450871098155    2.22163576144170
H          -2.25892735143214   -2.38096889826807    2.52777917540434
O           1.60418801044588   -2.57236675219708    1.46444253682125
H           1.23209589599625   -2.32501808794681    0.57800005459861
H           2.55701638615409   -2.49967299959808    1.38430001238311
O           0.65640610991707    2.16891400753530   -2.95395349477528
H          -0.14656958359093    1.62832576434713   -2.90467219397826
H           0.57615902586049    2.80380894764920   -2.19962986966256
H           1.45743412456123    1.02414604419345   -2.26447467238920
O          -2.12255271198131   -1.67964229828256   -0.38325781101446
H          -2.18235426800611   -0.88200217319728   -0.92606770198450
H          -1.20052391057331   -1.95820260531996   -0.52873217116793
H          -2.22172498520220   -1.50785571201061    1.23111970315470
O           0.27309718715778   -0.63810321422425    2.44177024678639
H           0.34391488813434   -0.03491419324683    1.55072195257065
H          -0.71061624098525   -0.95922759498721    2.44635828830735
H           0.84685142302174   -1.45362632553547    2.21075833746062
N           0.31503056387121    3.35095619826399   -0.56217885552492
H           1.03430362268087    3.89882882602161   -0.10713317042002
H           0.31737660752056    2.42363367215642   -0.13828603477517
H          -0.57757030525164    3.77995309575553   -0.35243392341291
