    26
        -50.46742658  Gyration_radius:  2.40200169775 Dipole_moment: 4.779
 S          -0.88210282366919   -1.44548507779307   -0.30708389947654
O           0.31934114727028   -1.29170662496642    0.70179243369398
O          -0.79000035878090   -0.32065989932895   -1.23769855038269
O          -2.11526400689273   -1.43274886528839    0.44142778625617
O          -0.56583515538371   -2.70719145898811   -0.97198307486215
H           0.85890580914945   -2.57293660523228   -1.11959262544585
H          -2.45263747677717    0.01450353576226    1.06002770936046
O          -2.55602954422398    0.90158484155175    1.49530708169501
H          -3.32543966130735    0.82457861794195    2.06150115164478
O           1.19549119675815    2.26191869614813    0.27682280572094
H           1.55689190123792    3.14838354658028    0.24748984824423
O           1.72468183873312    0.22307295952489   -1.55168066651339
H           1.82318807344840    0.88661992983185   -0.84771146522975
H           0.74630076107485    0.09388802449601   -1.60508877311665
O           0.04736117322800    0.73723970030356    2.24242432921477
H           0.18519474127760   -0.53597592808940    1.35742140832782
H           0.54482642842487    1.36897895639361    1.69209502470667
H          -0.89994030809562    0.93985695116435    2.11826418800833
O          -1.27514889562588    2.20908040140088   -0.59157146985694
H          -1.87840135747222    2.06192658240316    0.15080399401443
H           0.27468336829352    2.32356278793610   -0.10640348966601
H          -1.19902648961011    1.32640760426401   -1.00751577378543
N           1.93995541527164   -2.33739135923162   -1.13379876803600
H           1.98845157596167   -1.26916211817907   -1.28735067795338
H           2.42685294330964   -2.84703154650860   -1.86443127142704
H           2.30769969438532   -2.56131363207976   -0.21346724507096
