    26
        -50.46742651  Gyration_radius:  2.40213382155 Dipole_moment: 4.783
 S           0.46366509361718   -1.14390458697109   -1.20037681427526
O          -0.02077675348123    0.33181704102531   -1.46965690799115
O           0.00258637649385   -1.49407029567361    0.14293800722501
O           1.90161267137660   -1.18283306036503   -1.30946827727876
O          -0.26253978639215   -1.89697731565111   -2.22003683693412
H          -1.53863524430992   -1.23450159538499   -2.17275138989774
H           2.63617520606012   -0.42209997898397   -0.09584093734031
O           3.02793570315425    0.14272522766266    0.62149416599720
H           3.96900027341293    0.17316793666548    0.44271636928724
O          -0.67272081379747    1.53176022804276    1.95747176826803
H          -0.91935265702940    1.96440347495052    2.77547246571665
O          -2.25071269666813   -0.27468350776717    0.53392685030941
H          -1.45754602470702   -0.86402773918695    0.51324682460069
H          -1.91114791909684    0.54104550406484    0.93992652624879
O           1.18651210233236    2.03947623324405    0.01023713039473
H           0.53427654841932    2.05107533981096    0.73405155620309
H           1.94566386663159    1.51064438665873    0.32318353837524
H           0.49882017202786    1.01626842311507   -0.94003082330667
O           0.97330495190163   -0.45997083885871    2.38825950981195
H           1.85822573162079   -0.22484562200538    2.07470090536696
H          -0.08272600520498    0.76696890795861    2.21344353307320
H           0.61460275539883   -1.02140640299710    1.67130956486419
N          -2.44414691067786   -0.61256278618502   -2.04014848413162
H          -2.47051295172955   -0.38299283070453   -0.98494849936092
H          -3.28254383334638   -1.09873335059909   -2.34249131148108
H          -2.29901986597744    0.24425721815047   -2.56662843376579
