    26
        -50.46742658  Gyration_radius:  2.40200151745 Dipole_moment: 4.779
 S          -1.22585396937407   -0.88842181385453   -0.81831712747027
O          -0.30955782492433   -1.46114134331066    0.16763472249407
O          -0.56403487812240    0.45161698233287   -1.31938551316137
O          -2.51465642686605   -0.57951275391147   -0.24843667052769
O          -1.25654336520739   -1.69128377499189   -2.03837315693802
H           0.02225375238269   -1.35282998938779   -2.60374980718581
H          -2.40417003644028    0.21702337875307    1.14590844306182
O           1.84514283625051    1.14447772560468    1.38115048416533
H           2.53278255720613    1.43336203069693    1.98196760691350
O          -2.27313346009476    0.78907823052894    1.94757553201643
H          -3.15177273714924    1.05450707296948    2.22335916406444
O           2.10008633938598   -0.84286622031136   -0.55984015382281
H           2.19711063582763   -0.01135292982595   -0.06518942771943
H           1.26520189314282   -1.22637489642352   -0.19557306883306
O          -0.50196701879788    2.25141566917984    0.50280363269157
H          -1.14130751792625    1.88804535849921    1.14551653286036
H           0.38738362357506    2.04300773472258    0.84208534708963
H          -0.59905412319922    1.18729638381184   -0.62902304205599
O           0.13542568205948   -0.43867113265684    2.57770567771317
H           1.26577865993924    0.51802938883760    1.90120857728186
H          -0.70513276604870    0.02449511340168    2.70264172504498
H          -0.02316011321223   -1.00006401639657    1.79182013112409
N           1.01268515690915   -0.97525100476342   -2.92142513339703
H           1.47065963332804   -1.61388201171313   -3.56413946029172
H           1.57143735800381   -0.85774987004335   -2.00437475748452
H           0.86439608931868   -0.06295333180086   -3.34355024760296
