    26
        -50.46742652  Gyration_radius:  2.40199765626 Dipole_moment: 4.775
 S          -0.72016942133625   -1.50362766848944    0.42506162972806
O           0.67266740578979   -1.14919142642870    0.69745833220833
O          -1.21715172913124   -0.52728008656605   -0.70830324324244
O          -1.56241183738319   -1.33007699512092    1.58330818612566
O          -0.81447559197818   -2.80683732253462   -0.22827545232792
H          -0.34033290084657   -2.47208891254329   -1.54436035494151
H          -1.33303626572440    0.08571955711619    2.31405313081512
O           1.25486575988380    2.19421711301221   -0.48227965734302
H           1.83696440865635    2.95032853747570   -0.56442249735859
O          -1.21746660942247    1.00936592096217    2.66128388753396
H          -1.86986440911186    1.10882742196329    3.35625440996317
O           1.71952133634563   -0.34769873060056   -1.53400609393855
H           1.49981257848281   -0.69729300761081   -0.63602215445932
H           1.53297148841524    0.60327946998345   -1.45420404248719
O           1.44686789489503    1.09517126825426    1.88760529622064
H           0.64521305143274    1.27957417428220    2.39755321978186
H           1.31311344583008    0.18013337105545    1.56713997801894
H           1.41945650996989    1.81330611974398    0.42675831413046
O          -1.40447562073738    1.89539664754958    0.10321939516584
H          -1.37791213594823    1.77065152050598    1.07150941437110
H          -0.51243173720543    2.17817257963931   -0.16852833420934
H          -1.36008651766174    0.41565763399829   -0.37720412994669
N           0.01388238597278   -2.05698621229408   -2.50708384415809
H          -0.78368725056954   -1.61395720424268   -2.95428226387581
H           0.42271167576219   -2.77381070212156   -3.09840185565039
H           0.73545404562429   -1.30095305694194   -2.23383126007486
