    26
        -50.47318297  Gyration_radius:  2.449671222 Dipole_moment: 4.455
 S           0.55896326005459    1.22339541550015    0.37881424730070
O          -0.86306304044113    1.47135330475745    0.37677857666103
O           1.04065139475275    0.72260081623738   -0.90463396025819
O           0.94581274189252    0.29521987707351    1.45297138310178
O           1.26701674889311    2.58331360700521    0.65986832259228
H           2.19523291058746    2.32867147159723    0.82303899915536
H          -0.50710205725029   -0.24568584542753    2.09656907531032
O          -1.45246969253698   -0.47556749945621    2.23404639902772
H          -1.90940421931919    0.34259858384674    2.00955924628617
O          -0.32841384005096    0.37623747845517   -3.16675037711932
H           0.22373719626813    0.63023678113245   -2.39969218467613
O           3.38995806209221    1.22597991736512    1.48466542944312
H           2.58961953226237    0.66818200049684    1.57032737798763
H           3.68600078891429    1.42183664422551    2.37639756567845
O           0.96942576619977   -1.84548712947467   -0.44125611685573
H           0.15570019755777   -0.31512463181295   -3.62106848517453
H           1.07092170119441   -0.90440591796158   -0.72143111866604
H           1.37533877041782   -1.87134174525040    0.42946385303600
O          -2.37992784495886    0.22985634592385   -1.43808260643234
H          -1.96453173869133    0.85359363183527   -0.80750983377544
H          -1.81337891784495    0.28634995526005   -2.23406793242014
H          -2.04647578817584   -1.06512003267911   -0.69208645317187
N          -1.66518802589506   -1.83521786705587   -0.03535190680247
H          -1.69016601277010   -1.42331777097981    0.94000606885756
H          -0.64815731484920   -1.98459355602822   -0.27034134907572
H          -2.20010058830787   -2.69356384457761   -0.10023423004783
