    26
        -50.47318302  Gyration_radius:  2.44979500089 Dipole_moment: 4.453
 S          -1.27028532339490   -0.53436572630786    0.22855540895685
O          -0.94047889060642   -0.96967952956320   -1.10771551312743
O          -1.20023113659003    0.91589242183876    0.37681824104593
O          -0.41393979335530   -1.18068630501994    1.23564304423765
O          -2.73811216095485   -0.97589643761114    0.51176517442283
H          -2.84367358035711   -0.81921194415674    1.46956555256790
H           0.74306042386080   -2.00965650116950    0.34612975908758
O           1.34228839262630   -2.32108010191291   -0.36769839671568
H           0.74384801919218   -2.45073202435493   -1.11171778037777
O          -0.70279805897290    2.75004112580903   -1.49383310249943
H          -1.02965310645769    2.11395046815119   -0.82574753200607
O          -2.20820758835739   -0.82685631940283    3.10530374785384
H          -1.37609433485703   -0.96397682147135    2.60749425337808
H          -2.36436795605337   -1.62974393412398    3.60745739796468
O           0.50056450997674    0.65288808655456   -2.66550826416884
H           1.66057816010555    0.39664766861187   -1.69891445927339
H          -0.13079494979892    0.00826594615039   -2.28462896947850
H           0.10487049559600    1.52305243956348   -2.45594505835272
O           1.22911998034382    1.15702640424469    1.30137308322370
H           0.29253427515032    1.19129770922896    0.99142964254045
H           1.22683879594519    0.46088259327485    1.96389295078690
H          -0.33651111829065    3.48490712041307   -0.99919650955170
N           2.31143363840563    0.09365363694203   -0.89014207181717
H           2.09679257243735   -0.92813229667155   -0.71253478439917
H           2.01374796651054    0.61606222913833   -0.02379601811701
H           3.28947079789219    0.24545007183972   -1.10804979618379
