    26
        -50.47318296  Gyration_radius:  2.44982103995 Dipole_moment: 4.456
 S           0.37695456793025   -1.04137540652807    0.85157335042933
O          -0.13549477099194   -1.71088131299223   -0.32014095041467
O          -0.59069695912504   -0.11780320552436    1.43525074889153
O           1.63317900559320   -0.33127971350778    0.56395504860628
O           0.69356300699590   -2.13904008616072    1.91206031925651
H           1.19284860226756   -1.65687439781878    2.59860748090882
H           1.81805542608625   -0.44308142095561   -1.10112188879869
O           1.65838233631362   -0.56056774733302   -2.06347263227049
H           1.18439001006959   -1.39865276062972   -2.10342191042891
O          -3.11338896715391    0.32459069059843    0.69318976905298
H          -2.24674805310250    0.07623266410970    1.07400880911133
O           2.35994249037984   -0.43575980005655    3.07418400174736
H           3.26399761826990   -0.74295265480042    3.17150559831758
H           2.24558116537757   -0.19246076664560    2.13247682809745
O          -2.17118514076690   -0.60042492403386   -1.64647658258998
H          -1.19013687086631    0.51045345944870   -2.03147119005638
H          -1.52719567577359   -1.19792525601338   -1.21343946857919
H          -2.73030259885159   -0.28183116155315   -0.90908121083856
O           0.16122530205176    2.10517653743577    0.29181715987761
H          -3.28118486820988    1.22185357602107    0.98594151832265
H          -0.19193850513503    1.34094186490767    0.80728275483130
H           1.11279966107134    2.04300986507756    0.41089052659482
N          -0.34654162128650    1.17600655837787   -2.15463675876162
H          -0.47124232221381    1.81324213604078   -2.93276165265974
H           0.49937751947512    0.55173797487142   -2.28303417692931
H          -0.20424036839429    1.68766527766344   -1.24368549172866
