    26
        -50.47318296  Gyration_radius:  2.44973166747 Dipole_moment: 4.452
 S          -1.05399799515487    0.53864465062827    0.74236108870702
O          -1.47419962199928   -0.42690387520670   -0.26815626405469
O          -0.40115099200745    1.69092664878705    0.16794656317124
O          -0.20174093773236   -0.12443196537587    1.74200931743242
O          -2.32923686398503    1.04722817458228    1.48049995770049
H          -2.62526091593347    0.26839697714961    1.98930245926485
H           1.28112419759260    0.65310196713832    1.62538430762777
O           2.05011341512698    1.17989167153245    1.31436035740078
H           1.64541164876523    2.00639115695082    1.02861317215565
O          -1.30005597040088   -0.22669582906460   -2.92148891907684
H          -1.50749887060547   -0.26124299366019   -1.96565935141336
O          -2.27995549760290   -1.16498429348968    2.94110348630437
H          -2.24689222214696   -1.03418273811970    3.89134303939016
H          -1.38152323731838   -0.97657402563808    2.59991192968192
O           0.67089424796977    1.47899931618197   -2.26979247021090
H           1.68883761723951    0.52635723888640   -1.63575864177479
H          -0.00772886806820    0.94729316747134   -2.73284348848493
H           0.22645094627613    1.76205189904637   -1.44420380979867
O           0.58058638277346   -2.03676654536826   -0.23170786319213
H          -0.25909888569109   -1.52413065470759   -0.31228247688105
H          -1.26844008018450   -1.13826862034401   -3.21629236088161
H           0.69842772620477   -2.13761239441182    0.71674203329564
N           2.26910386661030   -0.11847565550466   -0.98997664462982
H           1.69054547773263   -0.97646708286280   -0.78711690080572
H           2.36612544844944    0.40131996877990   -0.07234103451944
H           3.16915997409494   -0.35386615337846   -1.39195748640440
