    26
        -50.47318292  Gyration_radius:  2.44980267357 Dipole_moment: 4.460
 S           0.47502393061395    0.79689236232261    1.04506660953615
O           0.96282045610218    1.44970892907145   -0.14641863304174
O           0.89144292197443   -0.59953462371014    1.12712573617898
O          -0.98965691148299    0.88754404270363    1.15172221748257
O           1.07950127396036    1.55101626316860    2.26800339164464
H           0.58533570601994    1.18821250102807    3.02779362344856
H          -1.48624800019734    1.55227520207762   -0.30786907160188
O           2.48711578176139   -1.95346866725958   -0.52591592654065
H           2.02284724888972   -1.44517664417606    0.16968112105230
O          -1.53105243813158    1.85368083748151   -1.24198028302134
H          -0.70443360034018    2.33619813355104   -1.35363222406189
O          -0.89889124796624    0.59086059370586    3.74882854295469
H          -1.43229771826274    1.24752623375859    4.20205854829969
H          -1.17118860081662    0.60790313186410    2.80832089306539
O          -1.20370180743549   -1.75581833547879    0.08415563620354
H          -0.37750341097699   -1.43866934460813    0.52153371453898
H          -1.90346605480934   -1.28636562286292    0.54624528745558
H           2.20208295333309   -2.86265313620267   -0.42074791087213
O           1.66332930636051   -0.05525313838347   -2.23923911610461
H           2.11849366947628   -0.80044871963617   -1.79722271215725
H           0.17698497870218   -0.39898392953223   -2.36913354702055
H           1.57923867498114    0.62109242432900   -1.53587074657467
N          -0.89224476194976   -0.51496780222643   -2.25464086660931
H          -1.26192904061622    0.44277641196738   -1.99438510805742
H          -1.06114745260900   -1.13679930396592   -1.42001374854726
H          -1.33045583657397   -0.87754777898235   -3.09346543765356
