    26
        -50.46848897  Gyration_radius:  2.49916560511 Dipole_moment: 3.128
 S           0.57357629609857   -0.83759510617078    0.75355106378076
O          -0.47290698108532   -1.33298825706397   -0.12871116557989
O           0.68615587201497    0.61729438212074    0.66394126434034
O           1.84548201257143   -1.50156197177648    0.55707893879974
O           0.07438043973052   -1.14733510310220    2.21520460551559
H           0.89473299012488   -1.17145698682531    2.75352348024455
H           1.99575229336866   -1.55598058050965   -1.57709452315442
O           1.26010563518015   -1.33173532107662   -2.15839919716080
H           0.48012219905307   -1.50557565505889   -1.60203226151679
O          -1.57062896100656    1.29663571922648    1.84789766430512
H          -0.67941030979684    1.18383676982442    1.45250890875940
O           2.55863257355289   -1.34032622332260    3.05588136395255
H           2.85933412042814   -2.19612073599656    3.37007809375563
H           2.58405407326730   -1.38102820631736    2.07550458292769
O           0.97099338972784    1.29076983202836   -1.84939365352748
H           0.98914796216468    1.18663395305601   -0.87025221719339
H           1.17817726905215    0.38513138935777   -2.17927731821617
H          -1.59889835464228    0.66977581966856    2.57452335149076
O          -2.58031102786943    0.19954292243383   -0.34212706348874
H          -2.03738242949794    1.05331685031185   -1.40831202317398
H          -1.90225003620416   -0.51470540465854   -0.29541506320020
H          -2.43756971615345    0.69463381511098    0.49849345469612
N          -1.55562993699122    1.67540344335263   -2.18436810915909
H          -1.78704456515361    2.65205054938817   -2.03420187177119
H          -1.86022076678610    1.37815560346938   -3.10553562904374
H          -0.46839404114849    1.53322851252156   -2.08306669637797
