    26
        -50.47318286  Gyration_radius:  2.44979010285 Dipole_moment: 4.460
 S          -0.63518300235864    0.44734968761676   -1.16208149653383
O           0.54235892655749   -0.37865257939747   -1.40966732034892
O          -0.31871240087541    1.65895412005575   -0.44384791860717
O          -1.66151604541979   -0.34348463883036   -0.46471049011036
O          -1.22666074474546    0.86637375209217   -2.54194148866291
H          -1.58031956096158    0.03098079828934   -2.90262229046265
H          -1.87281802515619    0.43163890709303    1.00973263851995
O           3.09144611147370    0.15296789896421   -0.83417580540931
H           2.19123771442970   -0.00029062469121   -1.18612224934077
O          -1.75145643489223    0.98883286340062    1.80987744497038
H          -1.51367394505127    1.84704487362628    1.44173697663198
O          -2.38486845617185   -1.51396439969856   -2.68914650212719
H          -2.21281559288237   -1.29000677916814   -1.75146195187865
H          -3.33768891269100   -1.50420775235687   -2.80436699014686
O           1.93377272249162    1.75100786296768    0.98883796995401
H           1.15664999772430    1.92982652372593    0.42020792155900
H           1.27794060090666    0.71986135164912    1.91098199127415
H           2.55871973798631    1.28641346548711    0.39599335437366
O           0.39703653796238   -1.99381483119275    0.63594240792269
H          -0.53735701674337   -2.21686443325931    0.60902955500398
H           0.53843095405205   -1.46896465295490   -0.18807246787986
H           3.48655034884692   -0.71513374639869   -0.73782114590598
N           0.63855777872174   -0.00572862191493    2.39540493558274
H           0.63709047607009   -0.87898948788789    1.80444550553859
H          -0.34170493931178    0.39185911076566    2.34452367398312
H           0.92498318005436   -0.19300865797943    3.34932375211451
