    26
        -50.47318272  Gyration_radius:  2.44981267377 Dipole_moment: 4.463
 S           0.89044558851978   -0.98864766003880    0.42862789606186
O           0.32208053881630   -1.23708346423764   -0.89245270829576
O          -0.11507355418100   -0.94497457590874    1.46344488581851
O           1.69404618716152    0.24368630096622    0.40195435716321
O           1.85374847892288   -2.16656223150258    0.76660469330888
H           2.59787860221453   -2.03871433958385    0.14771644873418
H           0.93418888577064    1.27495806780169    1.48623619319461
O           0.28173258779108    1.71093787633815    2.07765802392385
H          -0.04511781610796    0.98124116131686    2.61551709097585
O          -2.21846196894028   -1.72748469512094   -1.53753042317682
H          -1.26644708367811   -1.69688980767964   -1.31294208204993
O           3.70009824516706   -0.99380520190644   -0.73186117116400
H           4.53121070514984   -0.80372765816770   -0.29106463954615
H           3.05694687330881   -0.32473679624414   -0.41933029537516
O          -2.64572949663813   -0.43308240635299    0.77734519721689
H          -2.16275659177218    0.97509721933839    0.41937757873378
H          -2.73015394388920   -0.95214048685381   -0.04810310830784
H          -1.81275447970322   -0.75805439881276    1.17697437827819
O           0.07822325504576    1.21806232820678   -1.74551243542638
H           0.93631783686972    1.57045736844730   -1.49456216846635
H           0.15202673523479    0.25366195139331   -1.54815551982623
H          -2.28439580423346   -1.41889922290416   -2.44263182454756
N          -1.60247080412412    1.87757180453650    0.21598311320946
H          -1.03192790900876    1.71307762566726   -0.65534052703431
H          -0.91128480112107    1.97618403033169    1.01239267111144
H          -2.20237026657136    2.68986720098858    0.12965439547326
