    26
        -50.44962121  Gyration_radius:  2.52297927373 Dipole_moment: 3.587
 S          -0.49408479372130   -1.16291987400514   -0.49613777497315
O          -1.88938125433961   -1.06172378348406   -0.11452990907629
O           0.40783921542638   -0.95770736871776    0.62564182492040
O          -0.16395940327049   -0.23960063463897   -1.58956077506202
O          -0.21476218042346   -2.60975361819897   -1.02013938098769
H          -0.85704340346923   -2.69868905365158   -1.76319751883551
H           0.24401982213645    1.10728400465968   -1.06861077565257
O           0.49743362632728    2.02884318483039   -0.71881658095917
H           0.87080246939217    2.49342899329681   -1.47029372562777
O           0.27348225887124    1.20834062427435    2.97984127692122
H           0.00805697979862    1.95031342987604    3.52743368387115
O           2.90938205675226   -0.64798177622636    0.73230429619901
H           3.18938242611808   -1.16041674557996    1.49384503133415
H           1.95140160555531   -0.90827490477119    0.57274763016538
O           2.05273648412656    1.65354247368077    1.26237441400643
H           2.51076378456430    0.73264364666020    1.06343186576764
H           1.45997610666023    1.83538861040947    0.44027948406984
H           1.36526146210119    1.46301775335722    2.03135844909215
O          -1.59048453490946    1.23017284034442    1.16543308372712
H          -1.16586139294582    1.72187251200199    0.45373394110531
H          -1.80571632491181    0.35108606704054    0.78447637427430
H          -0.48198962581529    1.05266877146939    2.34087530128942
N          -2.10823349148261   -2.05726836250849   -2.75420508483233
H          -1.58186853109468   -1.26033980018050   -3.09433195434266
H          -2.60246274838118   -1.73716345054405   -1.92597363452079
H          -2.78469064305657   -2.32676353938697   -3.45797955184761
