    26
        -50.44962133  Gyration_radius:  2.52282138196 Dipole_moment: 3.575
 S          -0.71401547220091   -0.76763127400174   -0.85953404690576
O          -2.05538763157863   -0.61238745329173   -0.33108412188874
O           0.24240198257029   -1.17550247176532    0.15691155930650
O          -0.25258785506528    0.45414832194295   -1.53131622675331
O          -0.71949721869936   -1.90496179871153   -1.93305729307336
H          -1.38958594678958   -1.58634595814313   -2.58274121767009
H           0.41413647239149    1.39216276875646   -0.56785164935986
O           0.84428683972748    2.04077933176114    0.08785111918829
H           1.27593640000180    2.70373633374988   -0.45447812811218
O           0.57641537904296   -0.15726597773393    3.17085839625488
H           0.46832758477138    0.33286019293525    3.98874639084092
O           2.75980640045258   -1.33780937533891    0.12331361124735
H           2.96137616933664   -2.15171608774992    0.59004245967298
H           1.76596980698134   -1.35585690122076   -0.02815034233590
O           2.35810438296359    0.65685179836998    1.59725041627619
H           1.66901212216530    0.28277790000376    2.29418183885332
H           2.63275006667128   -0.16458708550663    1.00817108754587
H           1.78620183070506    1.24612766998201    0.97601386222218
O          -1.30171582876461    0.89046146930078    1.70707255657398
H          -1.68645816634309    0.28578402539400    1.03582407530201
H          -0.21239693045716    0.07968294424211    2.60092399218546
H          -0.81357494012518    1.55355767646333    1.20650457562011
N          -2.53116784591423   -0.41413303609610   -3.11331525998674
H          -1.87894735832148    0.36001145623487   -3.16909730021981
H          -2.93155208884166   -0.38009576826971   -2.17985781659333
H          -3.26783816469642   -0.27064869131052   -3.79318253813923
