    26
        -50.44962121  Gyration_radius:  2.52298482337 Dipole_moment: 3.584
 S           0.67962458387911   -0.76465180100667   -0.89183857209301
O           0.51359367808383   -0.95853276199429    0.53954289757345
O           1.79826515423698    0.10136700866149   -1.21030944194073
O          -0.57048064483212   -0.27459727360987   -1.48690511033812
O           0.94756200579258   -2.18251717116466   -1.49495032303777
H           1.06514631465445   -1.99072251186027   -2.45508898156531
H          -1.27052598972676    0.69276590279592   -0.57789965289969
O          -1.73492299514698    1.36768720730023    0.02599187042942
H          -2.61138032987826    1.48273322129332   -0.34619591939856
O           0.71114753209133    1.17137400445273    2.92155597853384
H           0.80100935127244    1.99145536282386    3.41167192538608
O          -1.33836633395798   -2.01869393945929    1.88545740344722
H          -0.89026851748081   -2.52231069024131    2.56847697778734
H          -0.61793206202315   -1.74382231205032    1.24016982755349
O           1.08311225735066    1.99870016522031    0.48342365299820
H           1.48334327678080    1.33560866400363   -0.12024710368038
H           0.17757264302472    2.11395573233055    0.17473068298225
H           0.99365537662454    1.37816554636243    1.98316213387891
O          -1.62853726351640    0.42543078543225    2.38939780938027
H          -1.58637376019867   -0.61248880594751    2.25417176301982
H          -0.66172797561403    0.70851571805388    2.68148029281008
H          -1.72245827347433    0.81060566139864    1.43904714683483
N           1.11598073998600   -0.88587339489778   -3.77282986859697
H           1.37001316155754   -0.82367883485569   -4.75114778945770
H           1.71922580723293   -0.27004090066452   -3.23479585154583
H           0.17372228324470   -0.53043458235918   -3.65607172809891
