    26
        -50.44688747  Gyration_radius:  2.60119041097 Dipole_moment: 6.329
 S          -1.11806436185453   -1.08527846142208   -0.45579560433013
O          -1.75588510160387    0.30119875293303   -0.36272828809334
O          -0.54494901600696   -1.46382695889061    0.80033777417696
O          -0.18870977581677   -1.08786884047106   -1.56902974968801
O          -2.30709368258572   -1.99320103057558   -0.78500184837815
H          -2.60049368755496   -1.66416774976247   -1.70890258741996
H           1.10176587135634   -0.11072196307946   -1.19623405375428
O           1.77210470038698    0.51058344938225   -0.83634164933117
H           2.38332206635141    0.72005985425698   -1.54406552904986
O           0.21675178310236    0.48291446010254    2.85685595269659
H          -0.51375295124381   -0.13594839417812    2.77402538460292
O           2.67143403231433    1.99263583427173    1.95881566250621
H           2.97558029691324    1.08396482367923    2.03325889040200
H           2.00014174592894    2.10721785908447    2.63598970046811
O           2.06665695708440   -0.93320729225425    1.49738845004902
H           1.29768289994472   -1.48551550692654    1.29497728647807
H           2.19220271455907   -0.39743954379578    0.69581659062036
H           0.99541190210720   -0.02191047290309    2.52996839863180
O          -0.11400211854364    1.86235641112814    0.63127988994385
H          -1.07680511080500    1.02846180473739    0.05965339069219
H          -0.00564286007685    1.49400211556671    1.54831878756810
H           0.72874959977203    1.67056591397984    0.17926538142368
N          -2.61116830925147   -0.87416981734019   -3.06703725750017
H          -1.60122855685534   -0.77505435579760   -3.09709068755210
H          -3.02199060302997    0.04057860457300   -2.93509933430437
H          -2.94201843462786   -1.26622944627565   -3.93862494086452
