    26
        -50.44962138  Gyration_radius:  2.52275967692 Dipole_moment: 3.569
 S          -0.78410896990948   -0.48872135887414    0.99115105268470
O          -1.12854537954036    0.72473896152092    1.70632452280745
O           0.64963794264152   -0.63447735632063    0.79768849630531
O          -1.48266385659653   -0.57372916788360   -0.29790320310639
O          -1.23643671762950   -1.72317204725750    1.83803435160211
H          -2.20373568435072   -1.56605624982991    1.95001148517784
H          -0.69981485258568    0.09324738763284   -1.39101661783645
O          -0.18301389726997    0.56647804866846   -2.12900052430942
H          -0.60492760773263    0.29962436481402   -2.94799187632681
O           2.82964292004948    1.54991206471534   -0.03951876989514
H           3.24452893810908    2.36942840632315   -0.31719301412311
O           2.00024838462510   -2.25273111764891   -0.58863308807963
H           1.36642340586377   -1.75770343774580    0.01482014178700
H           2.74698074405013   -2.48998684024194   -0.03453274469503
O           2.26016145902421   -0.09575933159766   -1.85087849659330
H           2.56943594118992    0.56610232609616   -1.09811595359437
H           2.22444800689041   -1.03842265125756   -1.39584167381699
H           1.27464382954743    0.15575002388191   -2.01163807948473
O           0.34532945951205    2.29243693224860    0.17275891594585
H           1.89030472653982    1.78808842876507    0.21371067098809
H          -0.01492848431648    2.01828884808721   -0.67787770922798
H          -0.17422996049764    1.80354021514135    0.84747112207396
N          -3.61595718760049   -0.62434445402174    1.67526969545346
H          -4.58143876866273   -0.53405041422381    1.96708431465717
H          -3.58233828334756   -0.66362387554108    0.66278950810460
H          -3.10964612802349    0.21514229441556    1.94302748353211
