    26
        -50.44962138  Gyration_radius:  2.52275387949 Dipole_moment: 3.569
 S           0.53682638160469   -0.81628520907178   -0.93884492365048
O           1.05766206817469   -0.45327243228165    0.36931098980153
O           0.90427553912953    0.13676155526678   -1.96808893994992
O          -0.91785778604655   -1.00664674155175   -0.87222081993821
O           1.16393831654760   -2.20614831179189   -1.28634936798833
H           0.79163066546668   -2.39436389589931   -2.18008127953245
H          -1.55899678287902   -0.01394306770927    0.05299653982989
O          -1.99915914779696    0.67385808203110    0.66033315644490
H          -2.89605992701728    0.36089915159138    0.79293395256259
O           1.18235981656856    2.40543552213949    1.79608782648159
H           1.07007007450158    3.33927739659246    1.98628694135411
O           0.61046254115927   -1.38347747373798    2.67143556913879
H           0.80013125762954   -1.19025059179753    1.70310331543243
H           1.46908007734334   -1.40833339726993    3.09931499643106
O           0.13217914450565    2.24761559631996   -0.57887871573388
H           0.94043542459655    2.28928948942076    0.83111321239811
H           0.51680989619103    1.55036356258497   -1.15344033352565
H          -0.76263730231811    1.95142757595425   -0.37860218815978
O          -0.54528333483802    0.84642221490247    2.74390478476213
H           0.20884420215684    1.49798099768622    2.41661231341368
H          -1.17309947905760    0.76688445833857    1.93153233470280
H          -0.08810506798926   -0.09267214105909    2.82117345329952
N          -0.19339833866370   -1.95907456296437   -3.52092018761822
H          -1.06265368564897   -1.88777064189342   -3.00405300797788
H          -0.40156169881024   -2.22592650167086   -4.47538804760141
H           0.21410715549571   -1.02805062409881   -3.51927156436045
