    26
        -50.44962134  Gyration_radius:  2.52272461093 Dipole_moment: 3.573
 S          -0.56927030389416   -1.22976862987358    0.02642144364314
O          -1.94965496003130   -0.89745006602674    0.32108174840650
O           0.36229723571052   -0.62934589261873    0.96768811896779
O          -0.20724542188672   -0.86617916980463   -1.34962081295160
O          -0.38082549290978   -2.77695243790325    0.15476076713033
H          -1.04044123398048   -3.12946608104131   -0.48822081818716
H           0.28979510164993    0.54775063623517   -1.43111220800886
O           0.60341753524787    1.51386201252693   -1.49316826119788
H           0.99081542176939    1.60120294759443   -2.36623812991981
O           0.39337296676084    2.31686665815330    2.21081512680333
H           0.18094056323880    3.23380626862287    2.39781333670313
O           2.87935546730769   -0.45848830632909    0.95863251215421
H           3.14199667033589   -0.62589932408900    1.86633785043665
H           1.90488473339659   -0.70229185774673    0.91323830896140
O           2.16653180973705    1.90262700315490    0.47943926655979
H           1.57175127733819    1.76183150977615   -0.34916644675559
H           1.48189519769246    2.08912048357822    1.25211381838088
H           2.56735001605731    0.95679506545560    0.68423856322983
O          -1.49638270468152    1.69679428277036    0.53390109150490
H          -1.76889277748014    0.75356940780478    0.55110160325798
H          -0.38032753651528    1.95561150989778    1.68725311084704
H          -1.05546921603004    1.82188091197735   -0.31374039668560
N          -2.27137261124545   -2.88777028412366   -1.66474490276130
H          -1.70859496014629   -2.34031770860440   -2.30613263666225
H          -2.72936689607516   -2.22074438957185   -1.04980705528149
H          -2.97655986147882   -3.38704454991570   -2.19288498863963
