    26
        -50.45028657  Gyration_radius:  2.6415020436 Dipole_moment: 5.318
 S           0.25751365373373   -1.18088874505124   -1.01322261302587
O           0.88565387983015   -1.47835056897215    0.23360110810381
O           0.91727359810343    0.01560926129493   -1.70612766728753
O          -1.16810101208758   -0.92617327494413   -0.92476316694597
O           0.50568739528168   -2.32102814017148   -2.00866897891235
H          -0.01474696772497   -2.02485612819616   -2.83487619156530
H          -1.59464842307435    0.19374845444792    0.21468063107073
O           1.94444725171831    1.97669988577767    1.79145409526776
H           2.13788465877344    2.80914260058516    2.22500299615656
O          -1.76100357082271    0.97730242585459    0.78646413420406
H          -2.71127308128452    1.10119851344128    0.81224915791437
O           0.58356598959534   -1.73164913759076    2.90452038003918
H           1.47793556768340   -1.90453720607430    3.20457422723223
H           0.63335063957484   -1.71689267492325    1.93193358316342
O           0.46952680462057    2.07412609810835   -0.37733936092187
H           1.13103251992340    2.06829988752966    0.36711848380783
H           0.77169532787630    0.91679169846637   -1.16679967990750
H          -0.38611423224691    1.87510640771512    0.04357646210934
O          -0.09009986579630    0.88280169775786    3.05236906377710
H           1.24065055406743    1.53746439773590    2.34014898635721
H          -0.77200327090290    0.93309116500664    2.36661998888911
H           0.10979669560285   -0.07171670881005    3.14160596683009
N          -0.97639123926273   -1.17989626181840   -3.76490567039925
H          -1.55306963681601   -0.86354464761436   -2.99165810801498
H          -1.56226617900244   -1.57692904748024   -4.48735088842735
H          -0.47629704739072   -0.38491995209632   -4.14020693953014
