    26
        -50.44962119  Gyration_radius:  2.52283065959 Dipole_moment: 3.588
 S           0.43585455017463   -1.27640674956040   -0.15285305497907
O          -0.15948687522675   -1.91863602077053    1.00289583755122
O           1.19495398876264   -0.08714159917503    0.19852928457052
O          -0.57181217114352   -0.95378935121991   -1.17149879283564
O           1.45369398800022   -2.26285205358740   -0.81358263555202
H           0.89330234958130   -3.04857565370817   -1.01662526152020
H          -1.18016497934620    0.39770689725709   -0.93610389147864
O          -1.61161528122432    1.30338117133956   -0.76473982151416
H          -2.10369774702162    1.50701716454858   -1.56245422144893
O           0.47693427316766    2.25710676519257    2.25701054886713
H           0.01356357828161    2.80885359031986    2.89080176771865
O           2.22242981962103    1.72571022589811   -1.22354488126596
H           1.88649730723884    0.88812820742326   -0.78004302902483
H           3.07345727065142    1.90515989794760   -0.81797413345931
O          -1.21787928296268    0.30678742132713    1.95572031027135
H          -1.68871566742313    0.57754118094704    1.15973415417644
H          -0.81397667857433   -0.56153687023641    1.73869300806103
H          -0.04327966057169    1.40287502944786    2.20249454866509
O           0.27440834419282    2.90494888866563   -0.16220651073701
H          -0.50252361505037    2.29033880253239   -0.44291871850130
H           0.41162578352301    2.68890977202067    0.85504507301860
H           1.11554507199441    2.51117192265409   -0.64674653471576
N          -0.62673848472832   -3.85356238138650   -1.00856869629995
H          -1.04966320007877   -4.75923211179702   -1.17099534051012
H          -1.12197689549808   -3.15812468489931   -1.55529526839354
H          -0.76073580636345   -3.59577946117858   -0.03477375070851
