    26
        -50.44962115  Gyration_radius:  2.52291266799 Dipole_moment: 3.590
 S          -0.61040045528282    1.21177099136866    0.04883394976743
O          -1.79295732840945    0.90078630371876    0.82829703584169
O          -0.43985793568746    0.32023117205943   -1.08697212114230
O           0.60030239527018    1.21357971841543    0.88032671324381
O          -0.75815172419647    2.65066477792648   -0.54569044090590
H          -0.88401882361438    3.20582131145750    0.25968702383212
H           1.21333686304295   -0.15360011047571    0.96508231678875
O           1.61737180489146   -1.08430466447825    1.04394523841853
H           2.48362146174921   -0.95444560934214    1.43474173908638
O          -0.82203737994213   -2.85415938688039   -1.26253952167644
H          -0.98070303568835   -3.77149501240557   -1.02985836359425
O           1.48344395777219   -0.00791226318448   -2.68621382279307
H           0.74702620123698    0.30236003731492   -2.07589010841470
H           1.07317190251852   -0.11401310410010   -3.54722766199073
O           1.57346684361041   -2.09619032557722   -1.29256443562626
H           1.64183156912562   -1.69676802977662   -0.34600492308498
H           0.58530507496187   -2.44330004492315   -1.34870004964317
H           1.61565495584110   -1.26997094025428   -1.93538473716699
O          -1.24576473812006   -1.67690712346214    1.01813553045982
H          -1.11489524904044   -2.31416806287986   -0.47140815698412
H          -0.35084292292340   -1.59439777836204    1.36581285614040
H          -1.58688390805709   -0.75846446477227    0.95177607266612
N          -1.01302345231942    3.37112446927497    1.96684668862762
H          -1.26168074120572    4.03906959949843    2.68625191778595
H          -0.10386071924036    2.97886544151706    2.18445500227170
H          -1.66945460631355    2.59582310827588    1.99426222804059
