    26
        -50.45352428  Gyration_radius:  2.57386073183 Dipole_moment: 4.240
 S           0.13994033970583   -0.93390708469208    1.04842735891485
O          -1.02702977487891   -0.68878610076715    1.97613183066422
O           0.86747731109562    0.28703819858000    0.80171867708808
O          -0.30627427016688   -1.55760356515320   -0.18591432570465
O           1.00221070493633   -1.92415221904651    1.82627264273645
H           1.48690414836443   -2.49036780419839    1.11627479254734
H          -1.22527342166340   -0.60271754709458   -1.14209552645490
O          -1.82032045020278    0.04352627346703   -1.59121219291626
H          -2.31825643549249   -0.45259343340181   -2.24342411088700
O          -1.83349396550266    3.17183105587203    0.88192714367061
H          -2.31808306403014    3.90256178388180    0.49542094332883
O           2.01900492096420   -3.03340643098974   -0.18870731660148
H           2.57578936413094   -2.25166673902241   -0.46818477268272
H           1.18594477487604   -2.94069979953666   -0.66675324961527
O          -2.75776568227944    0.70191950847869    0.86980781074637
H          -1.80586091145264   -0.08813739874162    1.54693181163885
H          -2.49124110415129    1.64632772587586    1.01535721893681
H          -2.58779473400439    0.52247433151912   -0.07714707012098
O          -0.10239575571427    2.17392919404547   -0.87736931473240
H          -1.10552661928549    2.95011517922425    0.25301265551350
H           0.37806644672596    1.59265133969151   -0.26122063016074
H          -0.67571077726138    1.58491956913963   -1.38566184710741
N           3.12973002530993   -0.67510922097811   -0.69495497064786
H           4.02564633315953   -0.48271693104476   -0.26456473428766
H           2.41833418778386   -0.17897482584492   -0.15854756832855
H           3.14597839903895   -0.27645505928062   -1.62552525554303
