    26
        -50.44680263  Gyration_radius:  2.53341843455 Dipole_moment: 3.778
 S           0.32371649138085    1.53016819126685   -0.45272261075237
O           0.84815450078479    0.60410470460527   -1.43161706868612
O           0.90072205466436    1.25985445164189    0.88489836633674
O          -1.13422073184760    1.49112655393223   -0.36705822207879
O           0.76214988167010    2.95889736393447   -0.85108269574784
H           0.35988252634057    3.51295035480710   -0.12538480802634
H          -1.52763424432073    0.02032429308782    0.06728904973513
O          -1.65017774780040   -0.92783468273135    0.35005922670616
H          -2.49236137709464   -0.98349884045101    0.80332648730299
O           1.95143093178089   -1.78297377723478   -0.81122599075405
H           2.05477182691639   -0.85931923497068   -1.09535293670637
O          -0.16880103334414   -3.63430713088183    0.28299585337911
H          -0.43889828005153   -3.53658747141517   -0.63468814873353
H           0.70892870265820   -4.02070472458151    0.27579772181621
O          -0.45135524425009   -1.76058701393788   -2.01085544939464
H           1.16718749306854   -2.07102264863410   -1.33038293780376
H          -1.08616157694078   -1.63782129590470   -1.28824012513809
H          -0.12055608357309   -0.86447666061101   -2.18287932462979
O           0.76790938351723   -1.15363970511233    1.32771308789677
H           1.32735298058891   -1.53551391202319    0.52822762355876
H           0.86770139519934   -0.07753600498814    1.21671438850339
H          -0.18476742962950   -1.34315895822269    1.08543982183536
N          -0.54455989650319    3.77843235562426    1.23869026582810
H           0.00446587267875    3.31751119739841    1.95363342798846
H          -1.25386723138274    3.12125347835624    0.92942303306324
H          -0.99101316447738    4.59435911708304    1.63728198453099
