    26
        -50.45352420  Gyration_radius:  2.57451734771 Dipole_moment: 4.243
 S           0.85430511828331   -1.08613466426733    0.28094867976061
O          -0.57952377679576   -1.05860623807037    0.12508687758629
O           1.24260425719006   -0.93619702410825    1.73328073021322
O           1.50697178325370   -0.07496178332028   -0.53359248363680
O           1.40773252751399   -2.45982229496916   -0.08789024578304
H           1.62908143360335   -2.41082490347787   -1.09189323887462
H           0.99364667576921    1.45331071864444   -0.26472801601477
O           0.65133209718721    2.32795738075657    0.03724307341036
H           1.26106365920512    2.98869583037610   -0.29609658047648
O          -1.90452988604341    1.37548599677982    2.94851095104600
H          -2.36678402209303    2.15525365061649    3.25908880016301
O           1.75857061938273   -1.95831275796787   -2.52714518265587
H           2.01283729834336   -1.05341002304188   -2.30890313894695
H           0.78912794868365   -1.91354529472433   -2.76623236111424
O           0.70395640438110    1.33798473405539    2.56418863183930
H           1.02841785857082    0.03171632629158    2.14489060346527
H           0.70444299047048    1.86144997092891    1.73726677443699
H          -0.24198196350605    1.30791369077435    2.86173408599382
O          -1.95732252612974    1.26432809577616    0.28923537914749
H          -1.60764583480840    0.36036889727168    0.19506714165713
H          -2.09264850825532    1.30036137762112    1.98227759661500
H          -1.21847705505118    1.84570289640876    0.06546399267472
N          -0.88066381585798   -1.69707838670936   -2.66556350141646
H          -0.95286102941939   -1.49231693474480   -1.66912398320561
H          -1.42167487929430   -2.53371462039010   -2.84517113864883
H          -1.31997739457783   -0.93560463051550   -3.16794343722574
