    26
        -50.44680267  Gyration_radius:  2.53349061361 Dipole_moment: 3.782
 S          -0.26996629844881    1.60529920495262   -0.03492023007867
O          -1.43435470898114    0.91993644159900    0.48012449647654
O           0.06901755928746    1.11393072101239   -1.39103110887633
O           0.89519091777599    1.46488988051812    0.83526308986867
O          -0.61110550588996    3.10745130991995   -0.17349472532951
H           0.24004672747014    3.48499128486378   -0.53195986255214
H           1.21691015811511   -0.08283147856005    0.92307444974131
O          -2.29989359508547   -1.47431592265935   -0.42795398350934
H          -2.40039563533863   -0.50875770000122   -0.38314747037164
O           1.32570365732111   -1.07343178808023    0.89378331964144
H           2.24300796286446   -1.26522213967110    1.09285919359426
O          -0.30993140185120   -3.62340130690804    0.30336175169145
H          -0.65399777961661   -3.36640201466056    1.16358643476720
H          -1.05318920433497   -3.94719935564449   -0.20904148342403
O          -1.19633809052019   -1.35868346536929    2.01752755797231
H          -0.24140218307547   -1.41686836899243    1.85962694841264
H          -1.40466884227259   -0.42834087469486    1.83540864627851
H          -2.06804368018114   -1.70002024244334    0.50099360999657
O           0.03857770567000   -1.34294955000452   -1.36994555207344
H           0.07461579947776   -0.26159323184126   -1.47097172262019
H           0.58719299901400   -1.53699859405642   -0.55531618334814
H          -0.94962692362970   -1.52886295975558   -1.07621990975136
N           1.82251954756757    3.42657771436842   -1.02280325085884
H           1.76675502858516    2.86921525447502   -1.86619900574296
H           2.06436634803737    2.80111782432428   -0.26058920664020
H           2.54900943801469    4.12246935733288   -1.13201580324607
