    26
        -50.45352413  Gyration_radius:  2.57415529024 Dipole_moment: 4.231
 S          -1.03540535262995    0.86517479641355    0.41224695321386
O          -0.90252832718282    2.10247217407322   -0.44444932465424
O           0.21447182537432    0.54974126466175    1.05969278732632
O          -1.53659536321647   -0.25183669791875   -0.37073027682696
O          -2.08721958594150    1.26609369032699    1.44294453852234
H          -2.56905255818220    0.39466046860737    1.70308198999562
H          -0.50366218637527   -0.80740892209360   -1.50898961526001
O           3.03865837532379    1.67727675535033   -1.46419555514908
H           3.79850561911533    1.51914669905308   -2.02614470378637
O           0.17576048366903   -1.00227799820288   -2.19731612244884
H          -0.25908922662667   -1.53434009130842   -2.86609561414200
O          -2.96492221062294   -1.05667944535008    1.84222776429211
H          -2.83390886739671   -1.27060363739972    0.91044154487973
H          -2.15126992564855   -1.39777503336884    2.31192844029532
O           2.24666919292648   -0.58981903924979   -0.31524149462909
H           1.70444115565664   -0.97301387488898   -1.01742983284139
H           2.89147270260199    0.84964101873533   -0.94653465864713
H           1.61271130540303   -0.19569456176221    0.31016362994321
O           0.57079649818366    1.67586511071235   -2.39374734679187
H           0.49026003495504    0.70630165961413   -2.50012932522812
H          -0.27118406585402    1.97341713017880   -1.30284877926536
H           1.49902081028873    1.83497936498402   -2.08188894901061
N          -0.55208392643999   -1.60636200435112    2.80623476999666
H          -0.12412663170119   -0.84635304175379    2.27783549200426
H          -0.06038516856016   -2.45940526886248    2.57012930468254
H          -0.39133460712536   -1.42320052616309    3.78881438351640
