    26
        -50.45546762  Gyration_radius:  2.49825165169 Dipole_moment: 5.328
 S          -2.15011326980021    0.32855042748315   -0.17302914126641
O          -2.42710974800174    1.20312902793108    0.93558505240357
O          -1.35542624647325   -0.85396789687675    0.20576318566694
O          -1.58645156569333    0.94800082511711   -1.34851196322178
O          -3.56891934022767   -0.26732967093126   -0.60385443574007
H          -4.12094623174923    0.07364950504100    0.09184811298061
H          -0.22821583307204    0.80225320879432   -2.33568359690215
O           1.92985739833650    1.11016275680694   -0.33518434517855
H           2.63061302861856    1.75903965200717   -0.26022933915897
O           1.13758911082101    0.00632745570464    3.24159861817315
H           1.99386606936416    0.12695468133970    3.65384077365206
O           0.65187803049071    0.46691231716668   -2.62051524319804
H           0.40857031512078   -0.94206127548099   -2.19522803596366
H           1.25300067273834    0.79421878244074   -1.92039482200249
O           0.12466743298880    1.80838804228239    1.38403199033390
H           1.18864455357157    1.44428577193219    0.25124381110673
H          -0.82991012686507    1.67879250964748    1.23167221760484
H           0.34608198828237    1.27858718072211    2.17175152792418
O           1.27111405961484   -1.31529475057830    0.82973300893551
H           0.30897778514739   -1.16287037063459    0.81847302962013
H           1.65602257394533   -0.51889735676959    0.42518038202512
H           1.25530587458200   -0.64924413692796    2.52830702991794
N           0.10983668741574   -1.85289619433962   -1.65959213211734
H          -0.24046129590032   -2.57848381918471   -2.27424072661336
H          -0.64077161726547   -1.50639332720732   -0.96900706789318
H           0.88229967406882   -2.18181332545649   -1.07355789090187
