    26
        -50.45546745  Gyration_radius:  2.49821778426 Dipole_moment: 5.322
 S           1.42189273086141   -1.60619405256056   -0.39850269330728
O          -0.04115186146766   -1.59981181397559   -0.21717277191790
O           2.14588127142189   -1.70351301364845    0.84124348734418
O           1.81518032606267   -0.53648176595969   -1.28413774536769
O           1.72107050381808   -2.97363856584610   -1.16911229071529
H           2.19896804529685   -3.45147740110881   -0.49961090153395
H           1.12521099572272    0.78785795905622   -2.06569225275895
O          -0.02546578255527    2.23740381407092    0.24273687593810
H           0.14334059472543    3.11729748308333    0.58185424132456
O          -1.04656426249475    0.13187758303926    3.26935866927598
H          -1.44828173592447    0.80514969588888    3.81985506230375
O           0.42458625030448    1.44010778696009   -2.29337108955088
H           0.28721846586407    1.92300023876211   -1.45279798163864
H          -0.69417649556161    0.45358355378140   -2.27727203906911
O           1.26054625585902    0.61601530831247    1.79796564112502
H           1.67101911857746   -0.20925414074068    1.47913916315987
H           0.55942270136743    1.62465202596126    0.77889416351251
H           0.58760525538300    0.34756478232143    2.45017639482647
O          -1.88814169059387    0.22798619838112    0.64918169205061
H          -1.25685447840764   -0.50518481391796    0.53552907058274
H          -1.55928232106332    0.09966435170950    2.43963659308419
H          -1.36112434498291    1.03513619986056    0.51922120717285
N          -1.38063970439542   -0.36953544375870   -2.03836249131494
H          -1.72078867915961   -0.85451861142575   -2.86060071121529
H          -2.14375281677146   -0.02700486240175   -1.44793936050381
H          -0.79571835167695   -1.01068251558577   -1.40021994277532
