    26
        -50.45546755  Gyration_radius:  2.49819990928 Dipole_moment: 5.322
 S           0.51998599716764    2.08256815192895    0.39106421895852
O          -0.66966320657169    2.59495185031539    1.01786393623913
O           0.24716313426747    1.34598445210269   -0.85649570160780
O           1.40555661340716    1.31606494110435    1.23458985616969
O           1.33675952656078    3.37287616591321   -0.07975358514462
H           0.70959015656753    4.06003680912684    0.11903967796791
H           2.11498285901245   -0.21205030547995    1.27688723558900
O          -3.33089057408702   -0.48173781526355   -0.69133718904490
H          -3.91846929736336   -1.23809178912281   -0.67123568507583
O          -0.29019989644326   -1.92781344124951    1.12630566148130
H          -0.63401044075711   -2.58191808938105    1.73594750955609
O           2.28452374778537   -1.13934106889419    0.99487026599565
H           2.21886917585408   -0.85474462148676   -0.46768235151419
H           1.42713160259671   -1.58290619342824    1.15879249275797
O          -0.77080364545692   -1.11904523844134   -1.47951887714296
H          -0.60254611036047   -0.17404914299956   -1.31298907303557
H          -0.62502644329548   -1.55456535561616   -0.62214603367865
H          -2.53391402091668   -0.75398119826297   -1.18442476143693
O          -1.72761985797538    0.19686977511436    1.47504998232443
H          -2.41523227782787    0.11980970771712    0.78840528312451
H          -0.77583949873871   -1.07745716987459    1.34079520300830
H          -1.36688622922571    1.09947656543513    1.39524388779055
N           1.95456420773900   -0.48095592726569   -1.46593459777968
H           1.36808483510066    0.39881784098259   -1.25999665900850
H           1.31004572447896   -1.13223413565945   -1.92274813257753
H           2.76384391803647   -0.27656477807222   -2.04059258374663
