    26
        -50.45546753  Gyration_radius:  2.49804996371 Dipole_moment: 5.323
 S           1.24921542270725   -0.93863411981300   -1.52278314851251
O          -0.17666646133889   -0.56490919463557   -1.50148846376917
O           1.50137135283458   -2.24278903227113   -0.96931466421850
O           2.05171115747375    0.14157700535830   -1.00070400873076
O           1.60369533127467   -1.06494888442782   -3.07593772082515
H           1.76867985610970   -1.99944822548007   -3.14294117828362
H           1.83897375130538    1.64180725916478   -0.26322355727245
O          -2.04487274353637   -2.20854248028252    1.65599647348989
H          -2.51488053196515   -2.19387038762148    2.49060436314438
O           0.19099155848169    0.86856569185959    2.06857132668105
H           0.35451632727797    0.94960080233777    3.00900207338577
O           1.34583122025595    2.38125755020673    0.15894577100282
H           0.16556900856600    2.29858972253247   -0.74913122300266
H           1.00238037313237    1.97898405499275    0.98292010099041
O           0.66220711684753   -1.60661247769986    1.47405937796827
H           0.47851342107803   -0.06004019810848    1.82366351403959
H          -0.21795322851006   -2.02249883548838    1.52496536178785
H           1.04264393613292   -1.88413623301372    0.62000415732357
O          -1.94866450964810    0.25062099922831    0.42120929436231
H          -1.30738806471955    0.55023218553278    1.08833971385292
H          -1.41738869552677   -0.22664090397543   -0.24136913697369
H          -2.25259073654449   -1.37215319074398    1.19803295460399
N          -0.66345896241327    1.95975346066581   -1.38469845043043
H          -0.77293215693104    2.51553014721906   -2.22499264256522
H          -1.52676780796845    1.91343180817319   -0.83618310128041
H          -0.41273596433300    0.93527349636499   -1.60354719659712
