    26
        -50.45546772  Gyration_radius:  2.49693079479 Dipole_moment: 5.349
 S          -0.71847242626451    0.07823404132687   -2.05725619678419
O           0.35678258909869    0.79981865129329   -1.35220371833076
O          -2.00247597027104    0.71572890404610   -1.93430679787591
O          -0.66868537180664   -1.32683541034163   -1.73161077945589
O          -0.33194383383904    0.20294795833103   -3.60320486140927
H          -1.02573522852757    0.77439526791597   -3.91481982094244
H           0.18187317317226   -2.36444674670267   -0.71341341775030
O          -0.40471306608926   -1.13125178144169    1.90728182198019
H          -0.85464332353100   -1.48059936819980    2.67749012527288
O          -1.05969464222361    2.64034391941950    1.92632102899297
H          -1.14095504474317    2.79101696560700    2.86887712022287
O           0.79913036541464   -2.61980889873197    0.00922007120823
H           0.36558150316183   -2.25950465424633    0.80981611858706
H           1.81677782023984   -1.57401895731776   -0.29788277268570
O           1.11836799573331    1.09218798720309    1.26197613750310
H           0.76552835979224    1.18207235323896    0.35832368656134
H          -0.16295292860985    2.28800085093020    1.77113918837993
H           0.66691832870894    0.31393360491577    1.63122636244400
O          -2.12551164055836    0.38407106683382    0.70313276696453
H          -1.92729568342397    1.27284076999077    1.05121070860542
H          -2.17118312844378    0.47771753459068   -0.26632250918895
H          -1.10424176574958   -0.63630077972777    1.38769413362843
N           2.33649696071831   -0.64392119265199   -0.56434697570700
H           2.56781915334135   -0.11879126237340    0.28361631588521
H           1.57651745247549   -0.06192574278995   -1.05819416757454
H           3.14671037246086   -0.79590507108809   -1.15376358837078
