    26
        -50.47117015  Gyration_radius:  2.45850465588 Dipole_moment: 2.480
 S          -1.48533448972393    1.38720573794151   -0.99558332151293
O          -1.46882192040190    2.58808176519858   -0.21084072957772
O          -1.87634328020458    0.18826969704415   -0.27234411585183
O          -0.21962925587999    1.15924434201002   -1.70881519303907
O          -2.57805814268499    1.61032765427082   -2.13021758498236
H          -2.89733079295917    2.48391013539782   -1.92708742637024
H           0.70388309719489    1.68970292478614   -0.40810132723447
O           0.54057600868689   -1.73261908234456    2.03367059048779
H           0.56028110502015   -2.11484605348030    2.91123699844182
O           1.18719753282734    1.89447662689936    0.41927388753680
H           0.98869210230002    2.81768966857517    0.59272293667812
O          -0.95317501223765   -2.33559823879117   -0.20720239130774
H          -1.49027538012728   -1.51888143838492   -0.22905118638169
H          -0.50918845250291   -2.32411298233250    0.66009777161800
O           2.47714367130879   -0.59824170142988    0.46469988482525
H           1.69403134387499   -1.01577355657167   -0.87410361412385
H           2.25981086259705    0.34140773315254    0.55767994292047
H           1.93429066834274   -1.06432135646902    1.12892268590656
O          -0.62602645957071    0.58547901956843    2.04703479079165
H          -1.27418232912584    0.49633269814103    1.32336895014232
H           0.06435738462295   -0.85469549244663    2.11816159557619
H           0.04950936136337    1.18463856572698    1.68650110645254
N           0.93974288325071   -1.19406479626574   -1.60045631187797
H           0.19608918320004   -1.81383668035741   -1.14467690516556
H           1.31300477855758   -1.59328433749585   -2.45334112739488
H           0.46975551227506   -0.26649086232686   -1.78154988656399
