    26
        -50.45538180  Gyration_radius:  2.56583241442 Dipole_moment: 4.085
 S           0.99863568946615    0.23233425971360    0.22010498629629
O           0.77617554573086    1.58476312681005   -0.28589732881584
O           2.38821570129115   -0.20598199099818   -0.29196937966752
O           0.95292559434417    0.13249683492860    1.65830844727316
O           0.01384473065381   -0.68480944908582   -0.40545221598530
O          -3.09750847441103    1.41145720635088    0.05546222176205
H          -3.46198295284103    2.27008335833788   -0.16890612207380
O          -0.26564941924719    2.13524710784228   -2.58831852759354
H           0.21543207470409    2.05827022627258   -1.72340016997217
H           0.38347452689638    1.95943248206723   -3.27193164587339
O          -1.05519760888413    1.95763326525682    1.59001368486712
H          -2.38596260781117    1.58204614295103    0.73318193254717
H          -0.63544474750116    1.25453016335810    2.10367175251115
H          -0.38569653850467    2.14038399335211    0.90642096977598
O          -1.78631595104978    0.26157544251468   -1.78527863180903
H          -1.28063052915947    1.02547423471976   -2.24187335294612
H          -1.01780342636879   -0.21838590567144   -1.20054707795189
H          -2.40273044923360    0.69569480147141   -1.07635609723408
O           2.81386770669211   -1.80787396828143    1.63673870165968
H           2.19077611443593   -2.52553949628069    1.36223041846223
H           2.71701033634539   -0.87253369407257    0.39452765635601
H           2.26503894143329   -1.18711272693119    2.13958987842343
N           0.75591430377841   -3.25555057868603    0.68655376107982
H           0.38894340381711   -2.40182913417005    0.26688696117058
H           0.06010278441397   -3.59930595307043    1.33653995610194
H           0.85456522099260   -3.94249977871185   -0.05030075838392
