    26
        -50.45546791  Gyration_radius:  2.49746279919 Dipole_moment: 5.343
 S          -0.93814897857567   -1.79065815774185   -0.81902262621439
O          -1.93449730007009   -2.11371257166807    0.16761833928736
O           0.39485439448384   -1.54651454439821   -0.23832661967841
O          -1.27520055180861   -0.73665631282721   -1.74551747927305
O          -0.75630624018827   -3.12130175842893   -1.68531720958883
H          -1.28487598584271   -3.73257642695244   -1.18316542923799
H          -0.65458721845175    0.73822783092916   -2.27329652186432
O          -0.46040823155140    2.18464685455509    0.29810383410724
H          -0.87921626387508    2.99232265051760    0.59803902742244
O           0.08291388732667    0.06024625121014    3.43344905838148
H           0.18784699357113    0.74951035398457    4.09047185598401
O          -0.05183212833250    1.51596432053212   -2.28148861190782
H          -0.23784399032776    1.95113615982353   -1.42433018072709
H           1.18477396530199    0.73892321544506   -1.98006466528545
O           1.56512203997020    0.49992666277910    1.15528682604399
H           0.95208690287043    1.21241363556556    0.90521060678969
H           0.79675061440287    0.18034660042055    2.77886402117169
H           1.13534891559245   -0.31964956878281    0.85073703367370
O          -1.78805806875441    0.24672297822676    1.38707999286271
H          -1.27900034215910    0.05050722815630    2.19495392223625
H          -1.04158485138687    1.43927225688332    0.63177458892573
H          -1.93638662107549   -0.61075004508966    0.94697153354727
N           1.92299952225145    0.03063967479488   -1.58067004231228
H           2.55704225105128   -0.32356640046385   -2.28740701287859
H           1.31807462617576   -0.74874516789353   -1.14826554931392
H           2.42013265812477    0.45332427848589   -0.79168870082924
