    26
        -50.45546764  Gyration_radius:  2.49763270472 Dipole_moment: 5.328
 S           0.78962059690764    1.82005863692634   -0.90637322883607
O           0.51972934070638    0.47696161176270   -1.45104862212987
O           2.09440361190126    1.93814152520548   -0.31125430997957
O          -0.32238070998084    2.25924582558691   -0.09779990581040
O           0.82548989583081    2.76961643574263   -2.19145719834889
H           1.74252257536771    3.02220965297678   -2.19888214183211
H          -1.77654372525351    1.65258453865655    0.49861403709705
O           2.40989638231129   -2.34801297374068    0.69672969048426
H           2.45576946255827   -3.10489213424993    1.28219844906829
O          -0.80135831851261   -0.71234769915447    1.98099965199980
H          -0.85826195577088   -0.93630827483757    2.91068943263858
O          -2.46313866717771    0.97518937663956    0.69353363432868
H          -2.00756984921989    0.36731342206656    1.31138873427837
H          -2.33022120531458    0.26107315153312   -0.60888824672640
O          -0.09377172949898   -1.96986525573221   -0.38467059354307
H           1.57436292769240   -2.42457911586348    0.19826937935017
H          -0.41360825727383   -1.67150678157533    0.48398804705622
H           0.31881455665571   -1.18305703750418   -0.78442445327521
O           1.60914088285358    0.15396422215861    1.60235640127159
H           0.09374427188802   -0.27711113541796    1.86264937837766
H           2.08883715734109   -0.63836495806272    1.29821562189923
H           1.82753642757951    0.86163888442943    0.96796538349913
N          -1.95711847936304   -0.21876573244436   -1.52359671786701
H          -2.53477305308762   -0.03095830816234   -2.33479204989932
H          -1.82904931199912   -1.22189302659748   -1.36374207678773
H          -0.96207284702459    0.17966514965582   -1.63066829646920
