    26
        -50.47117017  Gyration_radius:  2.4584803922 Dipole_moment: 2.479
 S           0.82928775836639   -1.41758766412082   -1.55706944975376
O           0.68938245732960   -1.77001839860567   -0.15361070193897
O           2.10778239488166   -0.87712545234128   -1.91975183338584
O          -0.28860294393887   -0.56020077955647   -1.97870723276787
O           0.66450239112103   -2.76696950458282   -2.38366356221211
H           1.48622286017797   -2.80607553737945   -2.86266681829043
H           0.53622687244566    0.85017958709590   -1.58300785347598
O           1.01724909504852    1.62470109829090   -1.22412493005219
H           1.80227508964390    1.69657502260151   -1.77218941719914
O           0.00582532988414    0.84764336630839    2.59044822082882
H           0.32774914778756    1.09372655434916    3.45787953826331
O          -1.25527233488337   -1.42814331164602    1.67023436960926
H          -0.53165054305746   -1.75649737167335    1.10050256878367
H          -0.85618632601954   -0.71594520300250    2.20218868123281
O           1.96674095701228    0.26870771531849    0.99216436013585
H           0.81419077374975    0.62495552585380    2.04125288549600
H           1.69331347727957   -0.59570316481516    0.63194708856883
H           1.84613237778706    0.88330672933687    0.24852308956998
O          -1.06582071211899    2.30063315788344    0.53166204131725
H          -1.89918510557333    1.02890164196400    0.01435547321584
H          -0.71339688596909    1.94139397794470    1.36825211627540
H          -0.31535398764008    2.33010449745337   -0.08051681469724
N          -2.18957508600609    0.04818493179151   -0.27249403254993
H          -1.52593140534890   -0.25193385524838   -1.03633486622795
H          -3.15339385104490    0.00674709088905   -0.58139919052098
H          -1.99251181091145   -0.59956066409006    0.55612627979851
