    26
        -50.47117022  Gyration_radius:  2.45851190333 Dipole_moment: 2.474
 S           1.47811180331646   -0.76483608700824   -1.53363031402859
O           1.87472361142261   -0.04698890364872   -0.33318797268042
O           1.28271659155887    0.05788689456743   -2.69252942008381
O           0.32177842973764   -1.62790606821846   -1.24977380989766
O           2.67156893804819   -1.75624869207253   -1.88581296049286
H           2.90193175738527   -1.48154914065748   -2.76771090247713
H          -0.77981086185370   -0.42348729042755   -1.65273074719521
O          -1.36702954159700    0.34975236298050   -1.78438765154114
H          -1.25920971996806    0.57980944194796   -2.71027913518915
O          -0.63250285843847    1.89141937445425    1.85879051358201
H          -0.72122145696617    2.74580318441169    2.28161932960101
O           1.14422047520076   -0.18392807762239    2.24990743983792
H           1.61676203513307   -0.11281569632090    1.39685683844007
H           0.60622390763066    0.62624911113391    2.31014207225708
O           0.34557743733240    2.12603466319062   -0.53364612262054
H           1.07564556257403    1.47900536386143   -0.52409606656007
H          -0.32861377860493    1.71295263771337   -1.09940808757782
H          -0.23693336764157    2.06321061805322    0.95405497902251
O          -2.46082432022248    0.15318691750803    0.79325652906443
H          -2.32714176463851    0.30583823004653   -0.15418310272426
H          -1.50340363508696   -1.10136380527028    1.09180844486599
H          -1.96231116701638    0.85758102456681    1.24975746363251
N          -0.66114196110233   -1.74226507898872    1.18253210713809
H           0.07145889744227   -1.22738069378449    1.76829381958199
H          -0.24534379272324   -1.83312440377289    0.21674181034823
H          -0.90523121092773   -2.64683588664341    1.56761495566602
