    26
        -50.47117023  Gyration_radius:  2.45853358918 Dipole_moment: 2.472
 S           1.56168635032908   -1.07163893148204   -1.23884325165531
O           0.99539661301556   -1.62439666437505   -0.01924688195145
O           2.77086816860330   -0.32123487509643   -1.05723318815721
O           0.53613191113410   -0.32286786889000   -1.98040312580074
O           1.93865271081372   -2.30813325445741   -2.16630424682565
H           2.87167615115044   -2.17582654879054   -2.30121774674478
H           0.90808549766170    1.11955570851523   -1.20055536367941
O           1.08742616900671    1.89630324809573   -0.63089208360023
H           1.99076678211711    2.14556611196841   -0.83981758529629
O          -1.06365870019846    0.48555811749706    2.46236789718282
H          -1.11906538555517    0.65371719178671    3.40325251908025
O          -1.49861257503944   -1.79447418924078    0.96961498462460
H          -0.57437719945124   -1.94351466629353    0.68757591567788
H          -1.44513342429855   -1.11288419202965    1.66392380738388
O           1.40599254823303    0.39481741201450    1.67024882974383
H           1.43328030767476   -0.44220102260527    1.16984521292706
H           1.45285236445781    1.08190953951182    0.98394193690697
H          -0.08734577235479    0.44912460516944    2.23856335256476
O          -1.56763235649464    2.04473898704627    0.26814783083807
H          -1.92799084873619    0.75362516035183   -0.61682470788447
H          -1.47925846236824    1.62719355613822    1.14616449068993
H          -0.66585828515886    2.25634072201629   -0.01617847035189
N          -1.92197739894403   -0.20973194984509   -1.06427935184376
H          -0.98872411814094   -0.31295158481476   -1.54633785213442
H          -2.69000612829220   -0.33823393900494   -1.71216239149202
H          -1.92317492916390   -0.93036069318158   -0.27335053022459
