    26
        -50.45538175  Gyration_radius:  2.56574379556 Dipole_moment: 4.089
 S          -0.58813385372159   -0.12237809566161   -0.86027529479910
O          -0.50217678921250   -0.02191961666048    0.61781946355462
O           0.33282963294427   -1.15908408400480   -1.32021304543804
O          -2.01265450711896   -0.62585373177657   -1.18023383816253
O          -0.37349449765867    1.16393957102055   -1.47640968941759
O           3.26072785256120   -0.01168873331839    0.97430330161590
H           4.03367872644641   -0.54228055896730    0.77092119952831
O           1.09143608109632   -3.18279839892655    0.10046036049170
H           0.37054800409183   -3.81310630529307    0.15142909885369
H           0.81764617353720   -2.50251503695854   -0.56866057190455
O          -3.00497309026285    1.70662514226634   -1.38545813123248
H          -2.11558885982315    1.94758311273724   -1.68606693437015
H          -2.56171452263925    0.21532740313083   -1.30075302313286
H          -3.01482729650975    1.93978046887395   -0.42414467542663
O           2.28490379194770    0.62985320527830   -1.36225704002544
H           1.76937830547919   -0.17564293580761   -1.54735802615783
H           1.61338836391752    1.32178942821411   -1.43083309762375
H           2.93238328458374    0.34355086127831    0.10214728165790
O           1.23589149592273   -1.29581228407884    1.79940330453828
H           0.44625553858995   -0.71933435726730    1.34450984925345
H           1.24313645235011   -2.15280840296927    1.23980794084897
H           2.09591964625123   -0.77475346103872    1.55502897800680
N          -2.47540062996420    1.99715677686112    1.23542217181017
H          -1.73687999064703    1.30187187371826    1.13169764863967
H          -3.09871107859660    1.67694223994530    1.96583388207432
H          -2.04356824359381    2.85555592937619    1.55387891678452
