    26
        -50.47117015  Gyration_radius:  2.4585516757 Dipole_moment: 2.479
 S          -1.00166241869134   -1.57134588096479   -1.28454794188149
O          -1.67436531101429   -2.44230160339783   -0.36415901669421
O           0.43863380162827   -1.48659466704607   -1.10578117197348
O          -1.58855776508848   -0.22347151917979   -1.32117854500097
O          -1.24482221127332   -2.17986545191609   -2.73426051291811
H          -1.76342496967924   -2.95393153506575   -2.53863062863665
H          -1.83364095071805   -0.19694232014030    0.34191082960194
O           2.07659356084071    0.67078062500979    1.63496715172465
H           2.75190889292433    0.60034060255940    2.30993753605769
O          -1.84061969919211   -0.19325445952832    1.32169752116514
H          -2.45577513029061   -0.89050528339230    1.56107831597668
O           2.20511051192919    0.53917696947281   -1.11860612504790
H           1.72309487015831   -0.30405600747396   -1.23111223555151
H           2.38917975884093    0.60070325936565   -0.16370898238654
O           0.60479813901248   -1.46524041522550    1.55353309592538
H          -0.29585274885755   -1.12931885971406    1.69935068938560
H           0.62176953075065   -1.69335675149137    0.60513441759948
H           1.56539195290264   -0.19106252534283    1.65497221094849
O          -0.24701823784588    2.11211678823537    1.47857089390746
H           0.62006278844578    1.71284393321584    1.68288694196858
H          -0.16381385092890    2.14954625386535   -0.12486111931766
H          -0.90331724649498    1.41881440036745    1.64419021006380
N          -0.03396912714971    1.88555375305728   -1.14561005129334
H          -0.19984159790997    2.66628275850360   -1.76935280017076
H          -0.69910002689475    1.08913246484820   -1.33851035425948
H           0.94923748455833    1.47595547137719   -1.24791033920340
