    26
        -50.47117025  Gyration_radius:  2.45852887745 Dipole_moment: 2.470
 S           1.08881860568742    1.50665850123585    1.29095842481316
O           1.40269559503896    2.59956182131153    0.41619223181372
O           1.66148375122914    0.22807619895662    0.90253729350440
O          -0.35592670542364    1.36515723325291    1.52539410032473
O           1.71461461226031    1.87407230019434    2.70678610099801
H           2.12731702554327    2.71309589021684    2.52799450978686
H          -0.73374707189488    1.72536937621731   -0.07279788390946
O           0.14780950162475   -1.97546118688274   -1.87314399166665
H           0.42677005259524   -2.46478978947426   -2.64731024680480
O          -0.88162828829888    1.82325962236300   -1.03643914825994
H          -0.59518788778580    2.71794819376141   -1.23478188668925
O           0.71971771041325   -2.28781127482417    0.80851797222955
H           0.61432449220164   -2.38634788780726   -0.15516202607177
H           1.24691711854779   -1.47263249418645    0.92493219743778
O           1.33648451132685    0.32768650521592   -1.74025115787400
H           0.65838348629718   -1.11307893329546   -1.88419448447715
H           0.60218983348594    0.96459149675465   -1.71921886765260
H           1.68004395655248    0.33208103028815   -0.82716349193348
O          -2.17181840831972   -0.66093072337613   -1.24742807120967
H          -1.44805506135121   -1.20434283543268   -1.61336328738752
H          -1.93435612382410   -0.90470335864171    0.32217077061172
H          -1.89717346533390    0.26058174401578   -1.36654629274476
N          -1.49611304286172   -0.98811325267123    1.28624985159114
H          -1.08365326820433   -0.04351043425403    1.51323469624540
H          -0.66516006604898   -1.65713864673292    1.20355380063205
H          -2.16475086345150   -1.27927907620632    1.98927888669909
