    26
        -50.47117022  Gyration_radius:  2.45853589281 Dipole_moment: 2.474
 S          -1.77833095846131   -1.36981715539138   -0.28887602988583
O          -2.61426693763206   -1.15377386980778    0.85689043111628
O          -0.44062926539263   -1.85318751913720    0.01189246131001
O          -1.70691576683471   -0.19317290180557   -1.16795018763606
O          -2.48772186361464   -2.50253277498542   -1.15190519027173
H          -3.25367875383773   -2.70230168846975   -0.62307009467921
H          -1.65448959302446    0.87506138972349    0.12946707663600
O          -1.50672768566485    1.43515112637849    0.91969266731172
H          -2.32135215461401    1.36303813898561    1.42268198745987
O           2.38455864143106    0.46353909562460    1.23724574929930
H           3.05452405426717    0.49561242133553    1.92043858171238
O           2.01317027465731   -1.24214185631662   -0.90007800162551
H           1.19748504828333   -1.67596704556165   -0.58001002026932
H           2.35098080807778   -0.74151515803385   -0.13535922836327
O           0.12801331614087   -0.40801691094045    2.17721562195950
H          -0.10492818776471   -1.11016391851046    1.54123592386381
H           1.55526235516448    0.10487691866806    1.67108675981741
H          -0.49700083199593    0.30917930960282    1.97650141578966
O           0.94397448933496    2.41176226709169   -0.03906051959372
H           0.08354828588635    2.31713205940847    0.39631428098494
H           1.56547224088805    1.86319293721257    0.47657010041384
H           0.78539382607005    1.49398228525052   -1.34754674864930
N           0.62494041681150    0.67569156472913   -2.00563032716775
H          -0.34450604304851    0.31083578685033   -1.80298277823488
H           1.29699316454657   -0.10491632462696   -1.71608394295081
H           0.72623112034195    0.93845184271134   -2.97867998832965
