    26
        -50.47117021  Gyration_radius:  2.45850442735 Dipole_moment: 2.473
 S           1.08569409803342   -0.84722560446022   -1.79584368191915
O           1.57393207455694   -0.98119487237624   -0.43306468310281
O           1.58840298707913    0.29191990294935   -2.50837467407493
O          -0.38245754635339   -0.92726081031974   -1.81903792299080
O           1.59347804587995   -2.12962088236306   -2.58881504968385
H           2.09715917403970   -1.73785899281585   -3.29531105774408
H          -0.55770079693862    0.73466232428267   -1.63389410933008
O          -0.59597299140753    1.68679112210605   -1.40586240843189
H          -0.20948983895117    2.13231361928869   -2.16346040686485
O           0.15503894564166    1.07716283209733    2.49944097309559
H           0.46511149077240    1.60326837834732    3.23678886126317
O           0.41661535741507   -1.60640482990323    1.91131796539691
H           1.00265927305906   -1.51268552981437    1.13429787562944
H           0.40213721517871   -0.72470211088460    2.32596343689242
O           1.53337385352785    1.56386886356811    0.35512961977997
H           0.74223017481625    1.30783512891272    1.72059514693725
H           1.78014275900525    0.66777165777219    0.05869543010076
H           0.86335743923510    1.84952840133359   -0.28893502442440
O          -2.08383569942988    1.22563926354453    0.92956339571750
H          -1.37995112522862    1.29459620811436    1.60254078890668
H          -1.71367506130353    1.60708925637535    0.11945598854708
H          -2.03303471955965   -0.35294603191898    0.63755722677236
N          -1.70592540115320   -1.33790323719952    0.41116869912180
H          -0.93690583697428   -1.58904873521436    1.11139784553956
H          -1.23289375689405   -1.28976568616563   -0.53116095453549
H          -2.46749012404141   -2.00582964526778    0.40984671939812
