    26
        -50.47117013  Gyration_radius:  2.45848917142 Dipole_moment: 2.477
 S          -0.20582608280566   -2.02539314921373    0.98844300369038
O           0.20305114968361   -2.97551220315231   -0.00566865369732
O          -1.34450555902619   -1.20163331901907    0.61665706603868
O           0.90330327389487   -1.17841048374198    1.45224151433805
O          -0.65303936825617   -2.87269687232276    2.25852839379995
H          -0.51921832108931   -3.76558116946318    1.95683414928045
H           1.55568275673083   -1.04448250031717   -0.09144585889460
O          -1.03070250480585    1.84984374348046   -1.71656898291041
H          -1.46144606105477    2.22538747312515   -2.48468530760909
O           1.81778937684326   -0.90571919462216   -1.02530945939716
H           2.08303843494685   -1.77546743090394   -1.33348025952145
O          -1.91531125183751    1.41442763798884    0.86065359641656
H          -1.79504044945830    1.69418558231824   -0.06501486405865
H          -1.92391763037542    0.43719314523549    0.83215200109830
O          -0.78478228167505   -0.72354496951307   -1.94435768800722
H          -0.98784130591202    0.86057065747730   -1.87180962813945
H           0.17237633854794   -0.87160206144599   -1.85929465869321
H          -1.15025245991259   -1.04345520230804   -1.09830936758130
O           1.56489304258753    1.88386766590044   -0.84396564340538
H           1.84645147435812    0.98576519110505   -1.07411380785369
H           0.69774729821805    2.00991751443881   -1.27435153435801
H           1.09524301402203    1.73076640871329    0.68415679105559
N           0.59883419501093    1.42677558406930    1.57279664025422
H           0.74726548627752    0.38546513836433    1.66037264741345
H          -0.45096206369598    1.55981855486165    1.41490166025596
H           0.93716949879014    1.91951424893494    2.39063827050736
