    26
        -50.47117024  Gyration_radius:  2.45850964383 Dipole_moment: 2.471
 S          -0.55159376719150    2.11288359547257   -0.59439229815790
O          -0.87911946642375    0.94737365676384   -1.39937591616692
O           0.68956824281901    2.74927751163726   -0.93009558513492
O          -0.65217849737617    1.78620005093271    0.83583179607440
O          -1.69243852446521    3.18807607336238   -0.86556417735741
H          -1.19130049633363    3.92901291602404   -1.19114595947896
H           0.96025987948915    1.31862423686685    0.92649611261267
O           0.69463910555917   -2.51598031254781   -0.78616252186995
H           1.10946498643513   -3.22428345774907   -1.27894559156213
O           1.86701163889159    0.94932510078225    0.88835950193439
H           2.42693009778846    1.70387883927246    0.69099088316298
O          -1.86629441903803   -1.48923275139348   -0.83911372923045
H          -1.64793568710563   -0.61485526479896   -1.21833965881172
H          -1.05669454441359   -2.02101913817876   -0.94525948967970
O           1.03840903408473   -1.58487639569192    1.76633726681445
H           1.01789616604228   -2.06671458917744    0.91754770527504
H           1.54243804029519   -0.77456609391879    1.59852167772465
H          -0.47793278611723   -1.05774533628489    1.82172115370943
O           1.51909599307521   -0.19563395469531   -1.60557286955325
H           1.88634929662218    0.21420575794958   -0.80405274862179
H           1.04880612287155   -1.65997116833460   -1.16876646210887
H           0.68148326687240    0.28211985012449   -1.75353523935575
N          -1.41249112803352   -0.61416225280369    1.58065736217862
H          -1.75235638822753   -1.05865556211253    0.66860227645220
H          -1.21667210326910    0.39751259306108    1.35233332180162
H          -2.08534408284286   -0.70079390456657    2.33292319934926
