    26
        -50.47117014  Gyration_radius:  2.45853750029 Dipole_moment: 2.481
 S           1.45596337521902    1.32901747934113   -1.11187858694348
O           1.78346083954559   -0.01623048897006   -0.66854521188421
O           1.80104337672244    2.37068038158970   -0.18769740676847
O           0.05047769157670    1.39425438528778   -1.53972436573473
O           2.31261207402245    1.59589252940648   -2.42563225590335
H           2.80487647622502    2.37443954360537   -2.18520463894269
H          -0.48347889374957    1.81211714565351   -0.00149951817340
O          -0.74432772532293    1.93492666946371    0.93498066447945
H          -0.36315345755293    2.78063989879413    1.18263632161627
O          -0.38720316807247   -1.96755075727156    1.84764216423840
H          -0.28600997122066   -2.48895335261449    2.64419371059414
O           0.48917260616753   -2.37087464073011   -0.73781641108135
H           1.13771754399501   -1.63987893990357   -0.77092390913451
H           0.24230077696675   -2.44864975110832    0.20161502197760
O          -2.39116720420632   -0.33787573497951    0.93664795662175
H          -1.80805051624261   -0.97734507885650    1.38834006841707
H          -2.00650852889325    0.53547575262562    1.10440515835428
H          -1.98220693452546   -0.62073496675433   -0.59039264357681
O           1.12359121956521    0.14184220119936    1.90841857108132
H           0.49679540693858    0.87686533236458    1.79823705706498
H           0.23443276121347   -1.18680457014274    1.93951009558865
H           1.58426443275925    0.09260351651683    1.04989895278658
N          -1.43495525369568   -0.77059737996683   -1.48848196797378
H          -2.03774915390878   -0.96644702942783   -2.27866492738275
H          -0.72624784525868   -1.55105825150238   -1.30526438971613
H          -0.86564992831426    0.10424610634533   -1.64479950964829
