    26
        -50.45128966  Gyration_radius:  2.6152587603 Dipole_moment: 4.159
 S           0.83884906217705   -0.08168980633484   -1.17687721860797
O           0.98480652561411    1.11182881636806   -0.39815965580230
O          -0.48321465644886   -0.40250857842105   -1.63530021276206
O           1.35520739463352   -1.28623481116745   -0.35580314851040
O           1.79313642001205   -0.01847707126010   -2.38007812626363
H           1.52117841479498   -0.81531123538081   -2.97331969817858
H           1.80554279702257   -0.93559635991880    0.49593601050435
O          -2.93076290727092    1.90857870704639    0.89870127727209
H          -3.49598117510470    2.20497369105819    1.61335135495804
O          -0.19807884766958   -0.08944858195106    2.73342088177622
H          -0.45696876297997   -0.66202136488677    3.45664627955001
O           2.25492643976134   -0.13204709459671    1.70324574267064
H           1.41454961418127   -0.14447155030220    2.21987456474531
H           2.27218186448305    0.73184521530187    1.27385721238397
O          -0.39373186603004    2.47902484999036    1.56771221395946
H          -0.28680961088520    1.75572187996992    2.20147025151634
H           0.08808176018458    2.19373075468762    0.77695187413358
H          -2.03604141838985    2.27464634991907    1.08397078648927
O          -1.81937876973407   -0.55783392274164    0.74737421373797
H          -2.36656494547736    0.25623943044559    0.74688964088820
H          -1.41230054590614   -0.58344717259275   -0.13219643613272
H          -0.80029504982206   -0.32186265001806    1.96745470144263
N           0.76501344035007   -2.04038784413289   -3.56307115633678
H           1.09946928714977   -2.93906060556526   -3.24181592661788
H           0.58414558700535   -2.09083193317512   -4.55685475688352
H          -0.09696007162233   -1.81535912231121   -3.07338065994627
