    26
        -50.46596328  Gyration_radius:  2.52200961699 Dipole_moment: 2.174
 S           1.07176707638996   -1.79314344160573   -0.55389390156076
O           1.63136550524884   -0.72600412730729   -1.38052735530332
O          -0.37003705604289   -1.67765049252598   -0.43353054747237
O           1.76765266806731   -1.95058197866596    0.70196245301956
O           1.31520355464275   -3.13819650050532   -1.36502292643961
H           2.22073232315446   -3.35181595756130   -1.16361986952482
H           1.44935583698446   -0.82334603733998    1.83724901542949
O          -2.60947566498130    1.59819893005087    0.82391091970796
H          -2.88224748157049    2.11983520824023    1.57917007071793
O           1.21148770054504   -0.07749352870188    2.43915710888585
H           1.77780048910253   -0.16028289756371    3.20796614910801
O          -0.83530974999841    2.39376530616658   -0.98062548107311
H          -1.54186744504885    2.21612675297591   -0.31669473103332
H          -0.80721595202614    1.17767068621144   -1.78038795874425
O           1.39606529974446    1.51361991578777    0.17828310523104
H           1.64735056953103    0.76626682863100   -0.38885203283835
H           0.01729524216735    2.27342063541348   -0.50125299111874
H           1.32368469389114    1.14910795059337    1.07407990763286
O          -1.43819000793428   -0.56756749299007    1.80589431969544
H          -2.23168633001364    0.76059546434951    1.19130055292207
H          -1.17100145427512   -1.10070919620565    1.03821162609095
H          -0.60459252793610   -0.31262385679551    2.23083566754869
N          -0.65403283347784    0.17920627423478   -2.24543061278699
H          -0.99071861075513   -0.55568387386275   -1.59223033520870
H           0.37231392056682   -0.01453436134605   -2.23769484011640
H          -1.06569975597301    0.10181981032614   -3.16825732276413
