    26
        -50.47416389  Gyration_radius:  2.42039865192 Dipole_moment: 2.171
 S          -1.50979099929762    1.30928287012888    0.07696237164071
O          -0.62325667056084    1.41891810133810    1.22228903798637
O          -2.06551599480877   -0.02378650992454   -0.06942538849902
O          -0.91335866534244    1.78655795016419   -1.16058957553866
O          -2.71397579417040    2.29047547800971    0.38134141203933
H          -3.09259831653886    2.41049076355772   -0.48254123693386
H          -0.79398342948939    0.46183488254459   -2.14517310452616
O          -0.86143480300732   -0.45692278107655   -2.48973527480392
H          -1.64532236216936   -0.79335686069319   -2.03955469616147
O           0.73139551873986   -0.47104336986904    2.42581440287884
H           0.84028154935233   -0.22830509086424    3.34635390547726
O           2.51171571882203   -0.28160098649804    0.30293184039620
H           2.33328014333245    0.66271041441782    0.08551605852234
H           2.09735382428879   -0.41390586338519    1.17237399472896
O           1.57317339632787    2.18203069629015   -0.09733527596902
H           0.84200697785505    2.06196881815490    0.53541852607711
H           0.19652916467020    0.24978705392618    2.01515533095622
H           1.11723657130406    2.31341168197874   -0.93542482258268
O          -0.80273911001810   -2.16013529112921    0.89171299521552
H          -1.40322739825782   -1.44118879632307    0.59851313398337
H           0.24659479565477   -2.13608300992271   -0.29607029353684
H          -0.30041871785104   -1.77802966707902    1.62997527634245
N           0.91361520195822   -1.83713263739478   -1.07342941142386
H           1.34938445209173   -2.63511508756520   -1.52113462043244
H           1.64464419204494   -1.20477509991209   -0.61479668048639
H           0.32841074509569   -1.28608763889774   -1.75914791534321
