    26
        -50.46596313  Gyration_radius:  2.5220170635 Dipole_moment: 2.174
 S          -0.07536890889062    0.88463716598379    1.97016950561268
O          -0.16977927441283    1.61062882807262    0.71695309552855
O           1.07344849824800   -0.01840177515482    1.98550799397361
O          -1.29946285164224    0.23870276068013    2.38287034576964
O           0.23272413764412    1.99084456901698    3.06931268456328
H          -0.01260554437869    1.56215398578465    3.88308279658030
H          -1.98715751638115   -0.74920517740677    1.28175811225647
O          -2.30246997537887   -1.34460849793974    0.55983405272666
H          -3.04676000021633   -1.83116739092423    0.91757028283367
O          -0.26668969280340    0.09026759089531   -3.15654174874106
H          -0.80245484192351   -0.35703993673641   -3.81209378792900
O           1.72552397291599   -1.04436483777873   -1.82154935599377
H           1.03098346606364   -0.68273615276375   -2.42011440313382
H           2.06340759622333    0.08710070474994   -0.97020061960491
O           0.36776904967503   -2.01890453167669    0.25283378245528
H          -0.59951535555461   -1.95397959434596    0.22712677059281
H           1.24598328900476   -1.59050815760116   -1.15597902544670
H           0.64977249155862   -1.43962614485121    0.97965356512579
O          -1.91199690662647    0.76429100153946   -1.18998320438167
H          -1.36800403305613    1.22833705591032   -0.53142299519315
H          -0.89241194035827    0.39866825551547   -2.45475879290715
H          -2.21272169912577   -0.03969340479408   -0.73869647138873
N           2.16267738823418    0.88539886997005   -0.20236956035813
H           1.29373387831399    1.45523869438479   -0.19021568808997
H           2.99833929313300    1.44723400655282   -0.31690488219428
H           2.10303547973201    0.42673211291994    0.73415752738442
