    26
        -50.47416521  Gyration_radius:  2.42057422755 Dipole_moment: 2.131
 S          -1.95884243778246   -0.38748592877212   -0.12600683544884
O          -1.32115600515057   -1.09533408478549    0.97052928603292
O          -1.34857187864779   -0.68727160320041   -1.40853747957969
O          -2.07008525245122    1.04473578664020    0.10064251159794
O          -3.44464511403650   -0.93161986313610   -0.17199961359646
H          -3.88962850026060   -0.24520342332996   -0.65663536777479
H          -1.11898567958940    1.75920601578020   -1.05134878214075
O          -0.51960159625599    1.88712789092230   -1.82047401739263
H          -0.73215386186818    1.13071667001283   -2.38003040630983
O           1.11694801318599   -2.03953821601494    1.11277605062968
H           1.11558305890758   -2.79914936345721    1.69684998336462
O           1.89944085372353    0.58107297777331    1.59383296742645
H           1.82700395459549   -0.38812176519724    1.56897800405798
H           1.05394517402631    0.88141459344899    2.00079334962609
O          -0.59865730322187    1.04106200799677    2.40563594835597
H           0.18075239731934   -1.73032980542644    1.06546150599784
H          -1.09518564243645    1.66879751788852    1.87011565919556
H          -0.91633998839113    0.17715509377840    2.08585681168448
O           1.18419149899347   -1.48669804987940   -1.57988500289472
H           0.21994466269544   -1.30957373164676   -1.62645319787914
H           1.71636515677155   -0.01513860992492   -1.32830473374536
H           1.31679843959384   -1.91383443994934   -0.71773331764557
N           1.84148570632032    0.99054199444978   -0.99414224727586
H           2.66871444602834    1.41822619375511   -1.39399907128728
H           1.90696474161612    0.94612383903395    0.07269347365326
H           0.96571517626394    1.50311830323466   -1.28861547867027
