    26
        -50.47416804  Gyration_radius:  2.4206314112 Dipole_moment: 2.071
 S          -0.87827682731625    1.79408520801540   -0.10655389660227
O          -1.81682868319325    0.70584528350138   -0.32114252856681
O           0.22734124100950    1.76313309900152   -1.04587138082345
O          -0.41949432394158    1.89574586055737    1.27014727224125
O          -1.69709479936253    3.12104793639663   -0.38033980969960
H          -1.20497387180717    3.76012135813650    0.12308140895060
H           1.20426249578541    1.57738773941321    1.22577410782198
O          -1.38547306027642   -1.61625494454266   -1.45129126244288
H          -2.20307408208128   -1.91505157830744   -1.85179285190581
O           2.11027842668109    1.37280273382873    0.90241821307038
H           2.10929801049149    1.75443591245754    0.01669028737830
O          -0.20115092021384   -2.35159367904410    0.94991128047109
H          -0.71846916883944   -1.74218967705882    1.52584975906855
H          -0.67125207876485   -2.34010295730954    0.09896208638099
O           1.01094182775953   -0.50021815320681   -2.20616379805649
H           0.74136237754446    0.40171683606212   -1.92867672122931
H           1.72724772561041   -0.98460655343629   -0.87787155702432
H           0.18755588190325   -1.01541004373376   -2.20683905571760
O          -1.62706152571264   -0.41297162735279    2.09853666683987
H          -1.58067845601661   -0.73054802385671   -1.06152781718146
H          -1.10855303302464    0.30580672355356    2.47537426450587
H          -1.91867077572465   -0.05032337599919    1.24240036051885
N           1.99317390539369   -1.17016179199486    0.13875490786613
H           2.11178958516301   -0.21938734575193    0.58410942932778
H           2.84337575328619   -1.71713016921417    0.21001787109986
H           1.16442435561640   -1.68617877010141    0.57604275364536
