    26
        -50.45538176  Gyration_radius:  2.565786983 Dipole_moment: 4.091
 S          -0.73049376851338    0.08568392496985    0.74839905173308
O          -1.30905336447547    1.22001982901138    1.62233448420527
O          -0.34592090658093   -1.02684813565474    1.58193098991554
O          -1.75548069534360   -0.24244796341094   -0.23963430331008
O           0.44816247757362    0.65567719257532    0.04984044070270
O           0.73981836982348   -1.87362771427868   -2.74332480192372
H           0.24109490498185   -2.24299792032335   -3.47493735676177
O          -2.01709057452469    0.93429697899473   -2.52787171457925
H          -2.39684361234359    1.80360412434919   -2.38755957983305
H          -2.07338607205252    0.46337706405028   -1.65576315363129
O          -0.59921037372025   -2.59439831866973   -0.61922700112406
H          -0.19815981337614   -2.50916047030190    0.25615669235103
H          -1.27135784318343   -1.88946785518369   -0.60671645247233
H           0.31635117995726   -2.22895512440090   -1.91318235875395
O           0.06905558353486    0.61276246099237    3.67158307921618
H           0.94580043606550    0.94279067467719    3.35378305343408
H          -0.84778422877538    1.11623103814121    2.51683355018771
H           0.00550988960775   -0.28850985367588    3.32070516899044
O           0.50479022368491    0.62874071067532   -2.40705179754160
H           0.66812393092990   -0.37218795543221   -2.61276672508411
H          -0.48085934232905    0.81342115793208   -2.61224052773543
H           0.53924101187389    0.68021645848079   -1.33048463647180
N           2.23448272577964    1.29568182373956    2.22984374158789
H           1.70160008616619    1.08396394638446    1.38673027571214
H           3.04157073552659    0.68478014844346    2.24200260130561
H           2.57003903973495    2.24735376797873    2.15061729984570
