    26
        -50.47416401  Gyration_radius:  2.42040390464 Dipole_moment: 2.168
 S          -1.39241221684432    1.43145092508011   -0.10460893544760
O          -0.88379515518355    1.18831939757402   -1.44227231400972
O          -0.33750423621561    1.75312982277469    0.84074884229203
O          -2.26295350026473    0.35776401945754    0.34747195291685
O          -2.30331336113760    2.72405809466719   -0.17484563206008
H          -3.10674822362188    2.37814974059124   -0.54737416640923
H          -2.03515239090903   -0.88747961652989   -0.71797885525368
O           2.20126905047268    1.12204878961896    0.73307491225920
H           2.70276352131730    1.79870477465501    1.18988915465269
O          -1.71598271190920   -1.42007133432682   -1.48081234673670
H          -1.53194720324660   -0.74631319996594   -2.14579604393152
O           1.41371082306590   -1.39930374635288    1.58863292154682
H           1.90032186136007   -0.57576574288822    1.41456349923547
H           0.60509049543566   -1.11077455376767    2.07202522532775
O          -0.78141055452271   -0.24163516291515    2.56466595440372
H          -0.58954849474223    0.60819015987673    2.12842924895541
H          -1.60575887409210   -0.51840903601615    2.15067520294689
H           1.25750050286767    1.40837861949983    0.77294381072193
O           1.61154755264274    0.35250183593720   -1.83996899839913
H           1.24399064530807   -1.11954816367851   -1.38160217606641
H           0.71950469602913    0.76135541343560   -1.81896474411937
H           2.06767591291204    0.71231839259076   -1.06160612905020
N           0.81772706219513   -1.97035605898112   -0.89880524057790
H          -0.22241453419870   -1.91068755152855   -1.07481966080787
H           1.02640655421052   -1.85925447583298    0.14455151571158
H           1.20143277909018   -2.83677134294878   -1.25821699810269
