    26
        -50.47416822  Gyration_radius:  2.42066236258 Dipole_moment: 2.060
 S          -1.26980043777544   -1.54146124034179   -0.12960139224693
O          -1.42411594635898   -0.79953177432087    1.11008539533223
O           0.08151211983120   -2.03859843209466   -0.31072495867784
O          -1.74385054914849   -0.81530179705071   -1.29750249005437
O          -2.22384503557701   -2.79759803093652    0.00540065532132
H          -2.38982301195890   -3.01355273328058   -0.90554757192267
H          -0.40365607853090   -0.54561846649768   -2.23327008872928
O           0.52276840775330   -0.55000210493473   -2.56265881185959
H           0.87037372440836   -1.37378391753565   -2.20079365200474
O           0.41058684424890    0.44402409427897    2.50371998567019
H           0.14795384260793    0.43750217353580    3.42515715559672
O           0.21627890527795    2.46182247322068    0.60678801450551
H           0.34312211419166    1.94834690996187    1.42258520565821
H          -0.71906756227750    2.28941552604899    0.34970073495199
O           2.17016965779252   -0.85278874255536    0.83665761346759
H           1.76120688008086   -0.45099411637770    1.62069906247806
H           1.47299004188450   -1.43166560783977    0.45991117101464
H           2.13773436544439    0.32812109230348   -0.21992786457862
O          -2.21430282178735    1.52026649521576    0.04404721565962
H          -2.08667191344194    0.72145515321551    0.58734553490134
H          -0.28888778856582   -0.05479525709493    2.01741406923768
H          -2.31891223840354    1.16559630316752   -0.84521045766324
N           1.83431310364133    1.07520073784372   -0.91888310046095
H           1.17647264924524    1.73183559482701   -0.38918579498945
H           1.30952216509109    0.56262464075857   -1.67920013060720
H           2.62792855233297    1.57948100650279   -1.29700548005978
