    26
        -50.47416581  Gyration_radius:  2.42047462135 Dipole_moment: 2.128
 S          -1.52770028297887    0.41438518503876   -1.22297348507456
O          -1.91233767841458   -0.46813815333504   -0.13505312682049
O          -0.43870517086942   -0.12609407355250   -2.01603378936706
O          -1.26058789649701    1.77741081958867   -0.79168925027239
O          -2.79769696857076    0.50394888716816   -2.16348861904921
H          -2.62930741049790    1.30799644444398   -2.64221300388821
H           0.34833331266587    2.03680307315758   -1.08573719382264
O          -0.47637021980630   -2.29393493396124    1.07361003742804
H          -1.06312107023057   -2.98199663918364    1.39056332986938
O           1.27936808612185    1.90430781291479   -1.37324353161232
H           1.18700627338492    1.28343822748262   -2.10557744610930
O           0.70946848082328   -0.18552579026360    2.43742306316982
H          -0.05751065943595    0.43088480034711    2.38710800390289
H           0.34618729034322   -1.04793803411570    2.17382400004335
O           1.29507690166265   -1.86219121837617   -0.98410282044848
H           0.76036002363322   -2.29095481886939   -0.29589669122124
H           0.65688542385978   -1.32021728873053   -1.49612881044096
H           2.04187696627437   -0.71558329715316   -0.18416730036533
O          -1.47672162211756    1.23548428879124    1.87831605288273
H          -1.82207984027209    0.55977084702592    1.26713734611978
H          -1.04956023015104   -1.64177876337271    0.60405840518082
H          -1.33267976946914    1.99545090197326    1.30446939940756
N           2.28027090039377    0.16524203627010    0.36896638991676
H           1.96241553601725    0.97594475830788   -0.22945784658792
H           3.27174698873746    0.22458831320789    0.57040842590389
H           1.70538262534219    0.11869658519765    1.26987846126235
