    26
        -50.45538171  Gyration_radius:  2.56580144868 Dipole_moment: 4.089
 S           0.94945989632562    0.25500605531244   -0.36510451110818
O           1.35617453653800   -1.03083525661274   -0.87666301112380
O           2.18180655218826    1.02477332348968    0.15835409228830
O           0.31479551137644    1.11376252108467   -1.36221406507879
O           0.03203463394791    0.09848294948293    0.79078626978015
O          -3.15674082179174   -0.62740407541533   -1.10495248519922
H          -3.74006993392186   -0.24589883043481   -1.76418927635296
O          -1.45993877693492    2.91808117491549   -0.82894208786042
H          -0.73613171358899    2.32067509670771   -1.15245663445979
H          -1.02471516141639    3.67043550557232   -0.42381459392804
O          -2.25268267258418    0.98929986379154    0.62676790803711
H          -2.07470500424223    1.84554406653525    0.09485656724109
H          -2.70279914076897    0.32340278353051   -0.02502114246522
H          -1.26322798021620    0.58448421543003    0.76738041051271
O           3.48087740573083   -1.07428120113359    0.76995472845192
H           2.96472628251532   -1.32865307829072    1.57460091546319
H           2.99209215499998   -1.46870368507083    0.03173793376274
H           2.82910265072653    0.30479224364196    0.45196088554212
O          -0.90600693239557   -1.00659628217708   -2.37526542493492
H          -2.32547492462566   -0.88908187204851   -1.59010229120718
H          -0.52464858182853   -0.11380296097253   -2.29548266853274
H          -0.21727886289410   -1.55823256663854   -1.98048731733153
N           1.57429574473838   -1.53264613915864    2.61089264065499
H           1.58696436841479   -1.12242312510508    3.53616816154111
H           1.18931886242906   -2.46528494428912    2.69309876680037
H           0.93277191725440   -0.98489578214780    2.03813621948638
