    26
        -50.45128995  Gyration_radius:  2.61522887435 Dipole_moment: 4.157
 S           0.31362398503252   -0.73089153395641   -1.21662976531396
O          -0.87580454271232   -1.33938885707534   -0.69112809324484
O           1.40972725169870   -0.56051076836012   -0.31008070690416
O          -0.08124228495978    0.64758830675973   -1.79613722476857
O           0.79109440512451   -1.52350775235817   -2.44348189117039
H          -0.06999757802535   -1.74111154854566   -2.96535646377592
H           0.60805285337318    1.34315300677342   -1.49178080028315
O           0.24866578672823    2.30380890266141    1.46201522410416
H          -0.21974139243388    3.10225484690465    1.70898158596919
O          -0.41573015977708   -0.91347462284671    3.46850185678923
H          -0.45441566030146   -0.60179659081984    4.37371369721329
O           1.68225419013760    2.13873215951623   -0.77310014184430
H           1.19605876059620    2.34512324438674    0.06022777008403
H           2.25515513476407    1.39464311178617   -0.55137459399260
O          -1.49935616163667    0.37564182639928    1.34558625307647
H          -1.27155781548513   -0.14213967849528    2.14676477380645
H          -0.44866944133288    1.58953351251911    1.37503148432733
H          -1.38606919100287   -0.24512826856232    0.60921920519604
O           1.79753381373686    0.10841586763773    2.34259588505051
H           1.44570525303121    1.00018720142919    2.21120749508197
H           0.47609550915620   -0.67022683358000    3.13041038329517
H           1.78424027009172   -0.29939341931316    1.46373868802280
N          -1.56420612497020   -1.89113236126390   -3.37070185779111
H          -1.89110095347523   -1.81657462786640   -2.41108837148209
H          -1.89552691862190   -2.75783841252771   -3.77311047998234
H          -1.93478898926692   -1.11596670108207   -3.90402389121053
