    26
        -50.45538181  Gyration_radius:  2.5657685627 Dipole_moment: 4.087
 S           0.94704461543125    0.01481921448229    0.45037393072566
O           1.35240797688009   -1.34467566477736    0.18993296786350
O          -0.52761746700645    0.11039508669930    0.58637551052358
O           1.53995148204024    0.49031303883738    1.79480811216253
O           1.39341959963972    0.96882318751553   -0.56214927816835
O          -1.44387431618368    0.09719569253746   -3.08094956178298
H          -1.29248284319329    0.58569023287272   -3.89265565436776
O           0.14787604668497    3.15299816487910   -1.16799105224113
H           0.28770479039412    3.79357420392913   -0.46820497699027
H           0.75704516552696    2.39354725749088   -0.97392065851298
O          -1.78270441399716    1.50607454958642   -1.00002791258609
H          -1.12464025381734    2.28126643391228   -1.11739382365783
H          -1.73944137694816    0.94594411418864   -1.86908282956368
H          -1.29248072669822    0.88496217708772   -0.26735891436030
O           0.91019230105066   -0.83569425469037   -2.43906251970229
H          -0.58546698741070   -0.36609347113255   -2.87309646563841
H           1.27319518614024   -0.05508242296261   -1.98327887806440
H           0.98873777536020   -1.52169330840205   -1.76253846924502
O           1.59036076577850   -1.83520240384905    2.82257089176808
H           0.61948312011390   -1.93829652247601    2.98194322199747
H           1.71978946248483   -2.12601022264351    1.90709646457302
H           1.63271552347566   -0.35212742992473    2.34746685093000
N          -1.09564286514763   -1.78123346405627    2.69582116958131
H          -1.01544291317887   -1.11617648916650    1.92712062368847
H          -1.67571824905215   -1.35794224289141    3.40921110116959
H          -1.58441138836155   -2.59537546705514    2.34499016993634
