    26
        -50.47416831  Gyration_radius:  2.42063835194 Dipole_moment: 2.060
 S           1.84467511815028   -0.70597955578622    0.31854074891691
O           1.84859238561215    0.69108407052361   -0.08034332748140
O           1.18515496371367   -1.55620319168210   -0.65502351879972
O           1.33220304933994   -0.91946358750887    1.66310326467234
O           3.36711622130639   -1.13671071006614    0.37167953129567
H           3.34164451482678   -1.86470041774494    0.98278943385825
H          -0.05485421100086   -1.80353832976264    1.47819401412847
O           0.20227544527243    1.92716576966855   -1.69792792175933
H           0.67289155054775    2.65044246717759   -2.11469835932628
O          -0.79319711749332   -2.31501241643280    1.07757249740790
H          -0.38224447531296   -2.70033074402022    0.29472251523126
O          -1.57660043970947    1.94972317163618    0.43372877763566
H          -0.89976468282541    1.93608738739093    1.14954028852163
H          -1.07402591499803    2.15537106881850   -0.37272440741059
O          -0.67393172171251   -0.60688248759276   -2.30586212357905
H          -1.75333146165090   -0.58044460374654   -1.14574537585348
H          -0.41343349823297    0.32593165516783   -2.37904689921874
H           0.06886846045356   -1.03738180930512   -1.83037689404404
O           0.53877598180101    1.67053424867876    2.03324165870269
H           0.85996670766680    1.47133392358402   -1.11976749936690
H           0.56801337847267    0.84670677904579    2.53112860082177
H           1.14371718316243    1.50074615654012    1.28840635851529
N          -2.25147062394564   -0.50082122666982   -0.20538692688460
H          -1.78927196362170   -1.21004822045732    0.42684309231738
H          -3.24543474742464   -0.67901281542103   -0.29146718988890
H          -2.06633409241930    0.49140345795298    0.14887965159536
