    26
        -50.47416924  Gyration_radius:  2.42083830096 Dipole_moment: 2.031
 S           1.72707414296186   -0.55024712655649   -0.84944513650816
O           0.79678913238765   -1.65889409702045   -0.71874581804721
O           2.01545930498229    0.08035778878215    0.42511391660225
O           1.32941045550229    0.41854319991561   -1.85910667979409
O           3.07561521668272   -1.18619600283835   -1.38175623714278
H           3.47291928697849   -0.44838421231403   -1.83090414334959
H           1.02385394755373    1.82276857392031   -1.03555112209142
O          -0.97628564959749   -2.08138099077983    1.16078890907971
H          -1.10332510119909   -3.02687488652059    1.25041258822936
O           0.93604597123524    2.48378374127714   -0.31281057533748
H           1.60736874043681    2.19696569380966    0.31738615797510
O          -2.53397566169283   -0.18846197006547   -0.14178047272837
H          -2.21345571826533   -0.94515809888731    0.37786314885515
H          -2.16327391588119   -0.33340685555158   -1.04292158930712
O          -1.11222878359251   -0.71789480414863   -2.33501605051950
H          -0.28475321806604   -1.96393598987481    0.46608000495276
H          -0.58154568179727    0.01418770543251   -2.66638402493143
H          -0.46454923526383   -1.25781590249705   -1.84650672132000
O           0.30473773160357   -0.02543761243655    2.46097466751660
H          -0.16642405800126   -0.85467037962846    2.27725951450465
H           1.05229474157306   -0.01673018626392    1.82520645056532
H          -0.62841720677778    1.06491806446495    1.78874955308676
N          -1.16675014946567    1.67312773051670    1.09661590473428
H          -1.71273851942448    2.38460083420821    1.56865037727674
H          -1.79531293982626    1.00993906510472    0.54029435851839
H          -0.43853285305884    2.10629671799418    0.46553302917840
