    26
        -50.45538186  Gyration_radius:  2.56579993647 Dipole_moment: 4.085
 S          -0.42625132244784    0.87377063472081    0.39608554765532
O          -0.63208583004559    1.36851149937694   -0.96309766620191
O          -1.60994965117338    0.31069896401394    0.99781147479783
O           0.68299832905446   -0.11197690126053    0.38786389628850
O           0.06572397123743    2.07573963642421    1.23191772889491
O          -0.37038666148544   -2.14719021687074   -2.61703365395033
H          -0.55807689122476   -2.05740688440030   -3.55358112297110
O           1.20535058498638    1.46266849639752   -2.78068286467644
H           1.80252349838608    2.18561219717106   -2.57975476946766
H           0.44007198151314    1.55372717145045   -2.15488103609497
O          -0.85317595762726    1.17895842789915    3.42698901396703
H          -0.18784219620247    0.46206801176844    3.57511052224403
H          -0.23468343130299    1.87239349490423    2.17645144986817
H          -1.52738002590855    0.77336827998309    2.86095271435052
O           1.62322246068542   -0.83138134103088   -1.76576950065927
H           0.87358687424280   -1.43724117564279   -2.14225202978010
H           1.57770863239285    0.04950181195834   -2.28526053087459
H           1.26301122001663   -0.55159117394103   -0.78848901482982
O          -2.20802436218298   -0.70334849745571   -1.44903780732188
H          -2.35501930909419   -0.78399819493283   -0.49714150005966
H          -1.79118386492786    0.17427390770476   -1.51919533835429
H          -1.12387167577755   -1.70066152739811   -2.14028929231463
N           0.92622208083823   -0.82272445076497    3.17871512881001
H           1.88853924877392   -0.74992790213752    3.48400038201307
H           0.90889082935677   -0.67155299252569    2.17052112005354
H           0.62008145782935   -1.77229126551430    3.35004713858313
