    26
        -50.47416572  Gyration_radius:  2.42044447547 Dipole_moment: 2.129
 S          -0.05540057421949    1.94668725934499    0.45651239679845
O           0.93450869746385    1.74767434410050   -0.58620875969403
O           0.18942006209076    1.11185758801636    1.61980265675401
O          -1.41235052581255    1.83741429873884   -0.05554538890547
O           0.09074435140326    3.43744216426255    0.96816730512633
H          -0.38361039567119    3.92002203624073    0.30023671556436
H          -1.27291451447434    1.17329905369880   -1.56591230886687
O          -0.89050928837528    0.79944018971378   -2.39124434939545
H          -0.03198983546517    1.23618475369337   -2.44168702842557
O           1.48598574204596   -1.15886153663454    1.75789043552367
H           1.86628472200173   -1.23914533248285    2.63370275619146
O          -0.80397290086527   -2.31312939802895    0.69384900456390
H          -1.44187323965986   -1.64892505391364    1.04397772479904
H           0.02163217304788   -2.13543579564361    1.17558908193939
O           2.27513214625949   -0.54131617961593   -0.80283633266592
H           2.27223126319532   -0.86046011144381    0.11445445661363
H           1.01863838844737   -1.27357154635854   -1.43341910183436
H           1.92570900828191    0.37436863975020   -0.75081796399249
O          -2.14098963636289   -0.19805175512571    1.61605539017489
H          -1.32500943259106    0.28266939295474    1.84509851037570
H          -2.53927476008024    0.35874376107971    0.93859565687385
H           1.03072900667445   -0.28328633480782    1.73735978748800
N           0.03072197965191   -1.59034435257186   -1.68301582151782
H           0.03731993421913   -2.31628658545587   -2.39016509280903
H          -0.47059990021492   -0.72608585826852   -2.02668257520754
H          -0.41056246095482   -1.94090364129573   -0.77375714548505
