    26
        -50.47416958  Gyration_radius:  2.42071564517 Dipole_moment: 2.015
 S           0.98750917576454   -1.03461064668163   -1.40027999644808
O           0.64520439789647    0.26792390920863   -1.94010062150124
O          -0.17632330750762   -1.74869315565149   -0.90332106313030
O           2.07105491560523   -0.95622687424086   -0.43265937157115
O           1.54927697967026   -1.91159235806757   -2.59253352038694
H           2.46983385498081   -1.67375315730726   -2.58842712481679
H           2.23925187725089    0.65378330310190   -0.07770329126761
O          -2.45777966898783   -0.76546877906170   -0.07573626297574
H          -3.14471597103881   -1.41234952051867   -0.24250256815120
O           2.11746254132703    1.62945232089484   -0.08056345326110
H           1.81460970110554    1.80065623386294   -0.98019886703764
O          -1.12381832715972   -0.14320530648356    2.27770338212155
H          -0.44986793693041   -0.85956781790757    2.22111182188030
H          -1.78862993386319   -0.38106955694259    1.60928866991992
O           0.63495291301540   -2.03899092245194    1.62628409209880
H           1.52917189185635   -1.72439734898774    1.45632994908813
H          -1.62222665928789   -1.15920519932118   -0.42407462133503
H           0.26456441657899   -2.14697911968342    0.73142201985156
O          -1.52254862318272    1.58973648853579   -1.14163572028759
H          -0.76740785366898    1.15097622854233   -1.58924010980649
H          -2.10670129718385    0.86219386796111   -0.87172198080275
H          -0.82274721838239    2.00164471552474    0.21936508671302
N          -0.22838243556049    2.02309762915456    1.10540397559705
H          -0.35144178524936    2.88835806570350    1.61852597053810
H           0.77168637007932    1.90770943523743    0.78476775643880
H          -0.53198801713346    1.18057755559240    1.69049584853798
