    26
        -50.47416733  Gyration_radius:  2.4206089477 Dipole_moment: 2.085
 S          -0.10258083955160   -1.08865251420708   -1.67544154121071
O          -1.25195201879913   -0.20367784105342   -1.62894555686467
O           0.00891350110217   -1.91332820466847   -0.48447781691619
O           1.12232305463208   -0.37292524985369   -1.99666566270799
O          -0.33147121513988   -2.10010491127706   -2.87153354048050
H          -0.03853032308483   -1.58863330525316   -3.61759434634559
H           0.76096899952745    1.23485544741586   -1.82913183886177
O           0.26765430082336    2.07050991443184   -1.67003159672659
H          -0.63146679735063    1.83624803523654   -1.92903684379064
O          -0.93086164716566   -1.45050108865248    1.91525601293475
H          -1.10974075043489   -2.29121238550047    2.33875252253956
O           1.21806083115370    0.28178540556471    2.21716036950706
H           1.82417790048158   -0.17555121316874    1.58933528043279
H           0.49432486964003   -0.35121101351408    2.36131075162620
O          -2.30601785697088    0.58669499898522    0.68374432032238
H          -2.07127340823806   -0.15150420834513    1.26976234248466
H          -1.12315978305513    1.61405381550192    0.92336086850167
H          -2.07414903473801    0.27440176636453   -0.21731083137366
O           2.43503178872294   -1.10058864078867    0.28854890954973
H           1.62892859870697   -1.60191921381059    0.06854661149686
H           2.61218486784307   -0.60618770745404   -0.51870014242904
H          -0.60517425958979   -1.66583016887766    1.00863166644489
N          -0.17567568200459    2.10421387172794    0.95006680195622
H           0.48504963644173    1.45122952879338    1.48051522780209
H          -0.23473661264847    3.00985083754371    1.40113303378390
H           0.12917186964371    2.19798405480870   -0.05725499168664
