    26
        -50.43916275  Gyration_radius:  2.49156078718 Dipole_moment: 2.421
 S           0.26370950071037   -1.50521776762510   -1.19744105495821
O           0.69815519217678   -0.31715337040633   -1.86261620556402
O          -0.56630793099552   -1.36777318212277   -0.04253633643149
O           1.47586860733077   -2.36924987058577   -0.84004010647668
O          -0.49319333693279   -2.39340921921026   -2.24297933670484
H          -0.22193247605261   -2.12551255100559   -3.11859471775181
H           1.58623000733155   -2.36190907392366    0.18525188663795
O          -1.29757498142063    2.55490099411590    0.19671007003120
H          -1.40283571376831    3.49814862253883    0.32495303419932
O           1.56672325761315    0.48245867219581    1.97044501560391
H           1.90380157060873    0.86166265197624    2.78396828098492
O           1.51769907026170   -2.15863006201486    1.66676639079503
H           1.67821238238448   -1.19165018913774    1.80080923258901
H           0.57951421598774   -2.28865603519380    1.83981641749214
O           1.23071253822086    1.95114514313229   -0.40965784419966
H           1.12199053341024    1.24614680418865   -1.06572663118519
H          -0.36951094310223    2.41629572967418   -0.11186804095572
H           1.55131991892737    1.50986959427949    0.39168871503433
O          -1.02240628336312    0.50112333487716    1.91845223411513
H          -1.10395265659584   -0.22312382772815    1.28076866319507
H           0.56247362698553    0.53919745340515    2.02253400220192
H          -1.27145420636849    1.30074243012956    1.41066816454766
N          -2.19882702632893    0.35957043917703   -1.93148770287405
H          -2.21857742382800   -0.48994092427459   -1.38031020225756
H          -2.30787137397206    1.13230205809368   -1.28200438489327
H          -1.26196607923299    0.43866212545445   -2.30756954317673
