    26
        -50.43916273  Gyration_radius:  2.49149578584 Dipole_moment: 2.433
 S           0.19512383535234   -1.65753860614669   -0.99114832163834
O          -0.67926817488694   -0.79598688373712   -1.72307719087870
O           0.44406045012328   -1.35808872418078    0.38356424214724
O           1.53313615553516   -1.77885387094463   -1.72518886549180
O          -0.37755845669299   -3.11332880513251   -1.08014378662289
H          -0.95400256213814   -3.16427738168320   -1.83981615889858
H           2.25379431551755   -1.30011545535951   -1.16407116706372
O          -1.96439121463407    1.72858653453549    1.18448081228849
H          -2.46110757045849    2.52693329737919    1.36663970971271
O           1.81907789890126    1.80497437295724    0.03642407728651
H           2.31063953883625    2.58636843007941    0.29529541364755
O           3.07047248570548   -0.53159043280863   -0.17246508346740
H           2.70037679833397    0.38573731371648   -0.19186799236312
H           2.77415588961625   -0.90954515525972    0.66198178746586
O          -0.72364830560531    1.89382639496002   -1.17310706486719
H           0.20941492020870    1.98341546878343   -0.92611831034054
H          -0.81370676588843    0.99208844286671   -1.51667072852555
H          -1.61155928670621    1.82174618522333    0.26660228789311
O           0.44441795508802    0.85286858577286    2.01386004311429
H           0.39122421679395   -0.04700976623051    1.66004516324859
H           1.30522758544856    1.50725615083397    0.84998130687650
H          -0.46057956877023    1.21080188214707    1.90352665071516
N          -2.58925582437518   -1.32062267847671    0.49788314736520
H          -2.39842727756795   -1.07330899663522   -0.46537894495458
H          -1.76604547543446   -1.80005171834525    0.84198409024862
H          -2.65157156230938   -0.44428459431433    1.00678487310015
