    26
        -50.43916265  Gyration_radius:  2.49174839561 Dipole_moment: 2.415
 S          -0.43711153229263   -1.81827580323981    0.52513599862850
O           0.21346222620604   -1.31800220666622   -0.64450341286950
O          -1.25082844878391   -0.91945014356110    1.28192263992372
O           0.60761829173263   -2.46338363240064    1.43948992787729
O          -1.32702943056745   -3.03860086210840    0.10838248374449
H          -2.07910943389530   -3.07651719667576    0.69574697852890
H           1.53495185581707   -2.09537637562719    1.17912489472618
O          -1.16182822003466    2.41672655582167   -1.02949362220391
H          -1.40313992630330    3.34207568776098   -1.08195671879831
O           2.12353428967502    1.19172164060441    0.80126159164360
H           2.82650021051664    1.84098070683716    0.86068984266439
O           2.72687453543106   -1.39091241678938    0.60880359590572
H           2.57722653354317   -1.48562723711531   -0.33758799661114
H           2.57773293952594   -0.43259700323807    0.80393921067339
O           1.12098740053656    1.09809058678841   -1.58468996609963
H           0.78066330200538    0.19509896859399   -1.50328545148604
H           0.32087496805115    1.66239238166828   -1.55830732968315
H           1.78057469881533    1.22684156876336   -0.14510063587983
O          -0.55729292256785    1.73031612282612    1.47821952009499
H          -0.92943595206786    0.83781663561257    1.54288594950898
H           0.40371808553597    1.60695547490935    1.44856277996576
H          -1.04255492838065    2.21269225609028   -0.07043594043765
N          -2.60468398190929   -0.41027172324752   -1.31851585615085
H          -2.34135214066226    0.53535595230303   -1.57788456288858
H          -1.84917629494166   -1.01561570466756   -1.61627008003059
H          -2.61117611498958   -0.43243421323970   -0.30613384074349
