    26
        -50.45538181  Gyration_radius:  2.56574469095 Dipole_moment: 4.087
 S          -0.15411817229780    0.44002065930528    0.94007614884408
O           0.62705774789076    0.36931185130777   -0.31967666910229
O           0.12508739056452   -0.69672356314235    1.78272240316640
O           0.28300398604216    1.73956085107272    1.65097185645623
O          -1.56906199381121    0.60016291556710    0.61322585109642
O          -1.54155460393270   -2.08343417908153   -2.20712556265712
H          -2.43846339194275   -2.19724435753417   -2.52803568092209
O          -2.45739995963666    1.69411850983233   -1.55547232191290
H          -2.24777429375575    1.33040461053402   -0.65588464362403
H          -2.33892361365978    2.64375547151025   -1.49428754526013
O          -1.78813020667566   -2.02963583878565    0.39300807978305
H          -1.00597854895207   -2.11603401135464    0.95439668593912
H          -2.02424296780663   -1.09214437492971    0.51227077898394
H          -1.58955389833848   -2.17432485066901   -1.21514094827984
O          -0.57281594479702    0.24619810321700   -2.46091655616122
H           0.01414909399059    0.30744349161763   -1.55837692465141
H          -0.94265571080326   -0.72019883959237   -2.45107113981959
H          -1.36308359126627    0.86504987435305   -2.26052607391607
O           2.13635062996388    0.62098504041931    2.98542731482579
H           2.78195078527642    0.49157009147436    2.24716590850120
H           1.04700116013180    1.45944485615647    2.25227498156028
H           1.55822202762273   -0.15581394594998    2.94334896038221
N           3.34930822274798    0.16442090423197    0.62866563406022
H           3.73890051065647   -0.75259226383574    0.44959425510669
H           3.94059755731833    0.84508497512223    0.16862792168927
H           2.43212776551035    0.20061400916024    0.18473729596098
