    26
        -50.45538174  Gyration_radius:  2.56582168304 Dipole_moment: 4.088
 S           0.45315931560277   -0.16581559787533    0.93160406437048
O           0.31983501330872   -0.52903752432307   -0.50105560164367
O           0.72136468531780    1.26660957642511    1.03548171877004
O          -0.70006386192602   -0.59944534600200    1.68155950682220
O           1.71661669983247   -0.88851459742785    1.44811618335253
O          -1.96365343384726    2.27657648062614   -1.59556674794925
H          -2.00876225923849    3.23417733354662   -1.63308318982663
O           1.87440379443897    2.67992219393517   -0.79827989656586
H           1.49824873404220    2.23857626523962    0.00741963220358
H           2.81228548250204    2.47998174240327   -0.79952033955931
O          -1.88402551814569    1.73351522126008    0.95843255578857
H          -2.02920723789254    0.82810026870388    1.26430449966979
H          -0.93061903115882    1.85379356151200    1.11802534359249
H          -2.04781369533353    2.03378261061590   -0.63186094685818
O           0.28366691300999    1.26064714319062   -2.18510162981960
H           0.30203918702009    0.42838096249234   -1.49972410016101
H          -0.65139473357940    1.67986516057482   -2.04108693186628
H           0.96191660885514    1.90827173061687   -1.77490139165695
O           0.46083936972942   -2.96833437703178    2.19955560789277
H           0.28034291454181   -3.35360439446652    1.30650664521752
H           1.37955583994235   -1.77436250190345    1.80216432385102
H          -0.26902198551444   -2.34860406168713    2.35022251919396
N          -0.09329366054691   -3.38776727337275   -0.39884786456944
H           0.01307889763710   -2.38525250831086   -0.55139832422075
H          -1.03812301582492   -3.63787429077628   -0.66255526383634
H           0.53862499725873   -3.86358781798264   -1.03041038218160
