    26
        -50.43916277  Gyration_radius:  2.49154494734 Dipole_moment: 2.430
 S          -1.76733424880923   -0.69588399217121    0.40044843316303
O          -0.84203598524012   -1.78510586351734    0.40743049242847
O          -1.36496302352160    0.52850803485836   -0.21641383958878
O          -2.23237860252847   -0.40476068901475    1.82970387634546
O          -3.08327961021468   -1.18621426596429   -0.29449025382462
H          -3.10713703752618   -2.14011395516128   -0.25502165219452
H          -1.84112164292036    0.50496385653922    2.11739172345433
O           1.40738152355078    1.26181526891245    1.73057920094947
H           2.10249004667204    1.80459865556080    2.10664337192495
O           2.20355429539634   -0.28785299631733   -1.81999098415099
H           3.09923445385663   -0.43633955720285   -2.12487626354864
O          -1.13642080547448    1.81692792546973    2.26926376958795
H          -0.17312317695398    1.59875892730091    2.21177402787951
H          -1.35018812699237    2.25269479135181    1.43776362499405
O           0.97742998465023    1.85995988259274   -0.75210210871879
H           1.31174810722428    1.54457794050264    0.76860005317311
H           1.48945203425609    1.20810945949969   -1.27391070032090
H           0.07025476684844    1.52155121034465   -0.76927460858514
O           1.85021611173729   -1.29219703369000    0.62765594322264
H           1.78420832921107   -0.50113852328630    1.18401026369694
H           0.94971780145961   -1.64684447603464    0.57654891732571
H           2.11943012604490   -0.76133860568516   -0.95719278423727
N          -0.72428554087640   -1.32882858240440   -2.53091839127734
H           0.20017451738464   -0.94632877292750   -2.70384938259714
H          -0.63146570740840   -1.93474493835977   -1.72489399391945
H          -1.31155857979898   -0.55477371117481   -2.24487870517672
