    26
        -50.47250281  Gyration_radius:  2.48721306078 Dipole_moment: 2.882
 S           0.72684196091251    0.79301398459954   -1.99685241189100
O           1.81999773490077    1.33230690492516   -1.19709868279939
O          -0.55161447736148    0.92043971590114   -1.32380548270455
O           1.00422992973058   -0.55288340429741   -2.46079655927842
O           0.63311117356336    1.69627480971751   -3.29507876527367
H           1.42868303496050    1.44330640317759   -3.75059909142844
H           0.92687279305781   -1.62808434531983   -1.28662567296512
O           0.81214151575672   -2.29198175591532   -0.55715422679552
H           1.35449641410364   -3.04450802233760   -0.79790385917429
O          -1.97464935973490   -0.63705182215340    1.81421619691073
H          -2.76526804093596   -0.98971001336081    2.22291757317137
O          -1.34888855978603    1.93543611530073    1.04702665428831
H          -1.25468472249374    1.74301536094107    0.09575473845786
H          -1.72527180747458    1.12160738318225    1.42926206660016
O          -1.80553228415290   -1.35073190400678   -0.68535048534713
H          -1.99226673198452   -0.93563792510499    0.85879064608462
H          -1.46123492188626   -0.51539557100007   -1.06057421876350
H          -1.04704054824681   -1.95261833517147   -0.70100148129003
O           0.72770045313235   -1.15912227889133    1.92920447578555
H           0.82748478644421   -1.63203625806235    1.08136702285579
H           1.14407291022594    0.35531323455766    1.64539467677115
H          -0.23323998394852   -1.06987399390515    2.06203969985468
N           1.20145790448962    1.36968000461780    1.33501158757081
H           0.20670063307938    1.74899809057921    1.34231642150329
H           1.52325714884073    1.38996946662618    0.32399340815552
H           1.82264302480768    1.91027413540034    1.92554578970273
