    26
        -50.43916261  Gyration_radius:  2.49179028265 Dipole_moment: 2.410
 S           0.51641138114414   -1.40267083734398   -1.24093767056179
O           1.25249119069996   -0.21962802340336   -1.55930815910626
O          -0.63839524540252   -1.27572420813389   -0.40908247849870
O           1.45587556577246   -2.44769888645506   -0.63347086984154
O           0.08091481072243   -2.07564043383425   -2.58709293190881
H           0.64810914502373   -1.75079987552658   -3.28337781037212
H           1.21741473675914   -2.55415208542855    0.36402915129143
O           0.84938696124740    0.08112371924085    2.41733001649098
H           0.92414664773422    0.33049277460299    3.34007291335693
O          -1.05875705131921    2.66742448419671    0.11206712024116
H          -1.11812027053701    3.59802960060129    0.33050359327030
O           0.67506361313384   -2.48900626236466    1.75817555435564
H           0.86513655704034   -1.56827528943124    2.06618175687482
H          -0.27450381675977   -2.51547166597674    1.60123040955915
O           1.46329432807757    1.80921385947960    0.27905390594052
H           1.45622274217867    1.25425222667150    1.07378616445591
H           1.51995624831116    1.19147775240440   -0.46555488181842
H          -0.09689389908858    2.44287103204467    0.10384647360375
O          -1.55904287171012    0.43421668821362    1.53354550200089
H          -1.55175010326714    1.30519867520759    1.08554547165971
H          -1.48476927714720   -0.20752818317209    0.81210202181996
H          -0.10477526655752    0.25983212872920    2.14874072047104
N          -1.37882337126781    0.82787396481874   -2.47083710964839
H          -1.65750400439859   -0.06151818529106   -2.07433070953567
H          -1.63427464726776    1.54186406099736   -1.79570795806367
H          -0.36681411311935    0.82424295915687   -2.50651019604455
