    26
        -50.43974021  Gyration_radius:  2.42997586126 Dipole_moment: 3.753
 S           1.00213493134655   -0.50479608377235   -1.41167409620710
O          -0.40160608425994   -0.15334087633261   -1.60715520077122
O           1.28575928430861   -1.01397912795346   -0.09409232244076
O           1.86637360989440    0.60322997213940   -1.79824320141798
O           1.31472315363878   -1.67254390658772   -2.43863017032431
H           1.49025895338868   -1.21388306188228   -3.25491784333182
H           1.49415215934480    1.79445846552719   -0.87343166357353
O           1.14885884399982    2.51614207120191   -0.26661944940304
H           1.28218040728465    3.34145567815555   -0.73759362130020
O          -0.95199536654448    0.87610143823717    2.44761420266398
H          -1.09465981149304    1.57223716938595    3.09017204041308
O          -2.42658009437943   -0.77740159140321    0.72675362111010
H          -2.11767490416581   -0.86754290803193    1.63079008205288
H          -2.01682572060301   -1.50967447775930    0.23107749782998
O           1.60283441760678    0.72220995729645    1.90307810647199
H           1.78584781646891    1.50269923128934    1.36765468682636
H           0.03159210008810    0.74784881663494    2.36843221118982
H           1.59888091074730   -0.02606491226009    1.27283358555711
O          -1.22976585074507    1.55974856710652   -0.01043780760393
H          -1.07404709040737    0.75713469543293   -0.66465164994002
H          -1.33111434555589    1.15459599304981    0.92999083938463
H          -0.34518183749225    2.05523496602596   -0.04375262958126
N          -0.94294785071287   -2.78762436991839   -0.53088051547886
H          -1.07151973810302   -2.51395659786403   -1.49724411848098
H          -0.83202287165847   -3.79406665541515   -0.50511171166645
H          -0.06765500200510   -2.36822246228003   -0.23396087198355
