    26
        -50.46760083  Gyration_radius:  2.41426490121 Dipole_moment: 4.168
 S          -0.59114110752797   -1.57054434712153    0.69394531436517
O           0.14567731018891   -0.40943003259418    1.12835595895855
O          -0.75250292959784   -1.58162944259325   -0.76307797165994
O          -1.82959775098246   -1.80415179544249    1.39499992820912
O           0.34327775680852   -2.81862980200562    1.02195730163606
H          -0.28400961705031   -3.52767677111512    1.11607315216696
H          -2.35450210968588   -0.24601351679311    1.70243437930030
O           2.74073289389619   -0.41347411054301    0.40563287341022
H           1.88538788987449   -0.66780631580722    0.79497472187621
O          -2.71051832754363    0.66764247971087    1.67100398966966
H          -3.64672761905424    0.59336210275710    1.86777137617107
O          -1.92462032297571    0.82045695233737   -0.87738436335131
H          -2.25586116550929    0.93275443890565    0.04064813770779
H          -1.63993340015431   -0.11213416605014   -0.92729980273780
O           1.30094217100389   -0.65211338470219   -2.04291539534981
H           0.54609523092327   -1.05348617707221   -1.53311824923430
H           1.27630164590662   -1.06363843677316   -2.90814723552583
H           2.63199442963244   -0.57585409530581   -0.53841802476745
O           1.59911320366846    1.91459724625018    1.15113402178767
H           0.91212701313138    1.41013037000493    1.60837403503683
H           2.29136993003112    1.24138473421483    0.97886099461358
H           0.92987517658058    1.95749481569046   -0.25641417907046
N           0.47137984421685    1.80994849608272   -1.21540523334903
H           0.54448942284003    2.63634275834661   -1.79765196264759
H          -0.55229972811328    1.52666401234127   -1.05740035291659
H           0.92295015949802    0.98580396728492   -1.65893339431213
