    26
        -50.46760081  Gyration_radius:  2.41430174723 Dipole_moment: 4.172
 S          -0.35619608973385   -1.51189262673584   -0.94193658648747
O          -1.10814124836172   -1.52318711814107    0.31661977242078
O           0.57345532641953   -0.41023295437477   -0.98424894988932
O          -1.20506559073135   -1.63847748887247   -2.10096051227593
O           0.54047347263649   -2.82827828398301   -0.90629551696571
H          -0.04024634136173   -3.48434151575233   -1.27676161459475
H          -1.44552779004183   -0.04008662509040   -2.53114201144772
O          -1.71791049340741    0.89901906125466   -2.61093815631880
H          -2.48952143599756    0.90278601054361   -3.18128366556069
O           2.62665847454683   -0.62721855192661    0.74597714493082
H           1.99513280099000   -0.80875590284309    0.02754303742150
O          -2.05429664350765    0.96342504597340    0.03814547535083
H          -1.88073791043951    0.01057122212256    0.16181727986936
H          -1.96571454452910    1.11075113674170   -0.92909586868704
O           0.28748577998092   -0.77353089138723    2.36814753901065
H          -0.12220928893896   -1.19001109649027    3.12790152800833
H          -0.21328759969403   -1.10820231270082    1.57568979953753
H           2.12466952207902   -0.78941827681375    1.55288673198400
O           2.05963731405402    1.79127409147110   -0.30712652395958
H           2.57036704482036    1.06382001520049    0.10761102699491
H           1.59162279303057    1.34712069555443   -1.02767991724227
H           0.87146543008864    1.87430241009590    0.69893489405626
N           0.04752317996594    1.75480348073587    1.37606340752114
H          -0.83536623252267    1.55587000620038    0.79803650037386
H          -0.07081964192595    2.56700501474835    1.97069016414847
H           0.21654971257754    0.89288544446725    1.93140501181711
