    26
        -50.45538181  Gyration_radius:  2.56580794756 Dipole_moment: 4.089
 S           0.62571682151665   -0.76730137779996    0.34766652049359
O           0.11872175594147    0.04503919944404   -0.78609155678811
O           1.11367038097082    0.12889525233716    1.39319896958507
O          -0.37659448312135   -1.70062676905633    0.80003540885007
O           1.85593596317248   -1.53545900667992   -0.18294711936299
O          -1.92928737288395    2.54782124972128    1.17190240799987
H          -1.84412763926009    3.20964636285720    1.86118535155102
O           2.00698142414744    2.51988368093003    0.97508169421022
H           1.76583084270735    1.59889831104036    1.25630499858607
H           2.88085061365297    2.46014340246563    0.58473447304699
O          -1.34542573559610    0.29661998864425    2.36137956474621
H          -1.82437609739340    1.66438338953862    1.62272846433537
H          -1.54495872454703   -0.54385856400593    1.92752924382230
H          -0.37368709383070    0.33187294735892    2.30362248680473
O          -0.04627520355993    2.48320382829529   -0.52511958539050
H           0.00925357041221    1.42192644012748   -0.70824198408594
H          -0.85344342660529    2.58280238338746    0.11479235522208
H           0.79376240538205    2.66181475124243    0.03177936812647
O           0.51880841927391   -3.57319818688329   -0.90876822979729
H          -0.06086408585656   -3.32853028048265   -0.17151718595274
H           0.08650728114282   -3.17975991869891   -1.70685162688751
H           1.48456113144896   -2.41355263359461   -0.52161741092546
N          -0.66592258084798   -1.96430952485727   -2.70924268774520
H          -0.45423315324081   -1.17599292123105   -2.09820861868986
H          -1.67181583481782   -2.00701737376406   -2.81464682978782
H          -0.26958916820402   -1.76334465040940   -3.61868847193986
