    26
        -50.47250281  Gyration_radius:  2.48713640496 Dipole_moment: 2.883
 S           2.20886661550775    0.25587942301709    0.44629152980053
O           2.13587309532910    1.25805432791345   -0.61003970680271
O           1.42686742041944   -0.92380902619378    0.12938865001701
O           1.90797340532774    0.81607702009131    1.74983285747657
O           3.71865782388313   -0.22019001434228    0.50885040377049
H           4.13979122981109    0.55549522423849    0.86298223993414
H           0.36102048537516    1.15981309795926    1.92072184269880
O          -2.28496966751981   -1.51412432114826   -0.28351811386368
H          -2.99999039004668   -2.13237029641206   -0.13182851184399
O          -0.61437303312152    1.30809631999112    2.03333379624830
H          -0.70178352122270    1.99477373338437    2.69606067484876
O          -0.10547500876412   -1.67233723989774   -1.96328656468343
H           0.57163804634675   -1.64423944975307   -1.26221590376932
H          -0.95050912147519   -1.77672858259339   -1.48878105072738
O          -1.99775582105094    1.22509346525281   -0.32286768869420
H          -0.83641232853810    1.19780668629215   -1.41737460461551
H          -2.29145629117659    0.29629061871060   -0.33494522637049
H          -1.55615049229309    1.34410307543338    0.53924828074382
O          -0.63963621651875   -1.46077786085192    1.73520794339836
H          -1.69043743680625   -1.56581387089810    0.52037520544095
H           0.20373438502717   -1.39161768844184    1.24419052745719
H          -0.77079439618966   -0.57939594271029    2.11436447305274
N          -0.01709477469173    0.95301888015149   -2.04776201213180
H           0.88040509500495    1.13740072558268   -1.51228801243145
H          -0.03813130947246    1.47757480907611   -2.91449546765356
H          -0.05985778314710   -0.09807313385394   -2.21144555129871
