    26
        -50.46760082  Gyration_radius:  2.41453958166 Dipole_moment: 4.167
 S          -0.90680480915780   -1.20611922755615    1.01006442910477
O          -0.74283957259671   -1.72465433090924   -0.35137644412913
O          -0.47097826941191    0.16547834377375    1.10177949195401
O          -0.36181910569351   -2.08775835731798    2.01283865875497
O          -2.47996605448283   -1.17374626596049    1.26001611427865
H          -2.65488594968099   -2.04772770584188    1.59246817226255
H           1.16974365404669   -1.45568925629950    2.24081764719944
O          -2.03438201719981    1.91354109895305   -0.22375417288570
H          -1.72802310150566    1.22343745207276    0.39087584026105
O           2.10896303231791   -1.17818192106343    2.18157795799783
H           2.61683844626742   -1.87337078927905    2.60541246288997
O           1.87429841503818   -1.18315871407239   -0.47916269294139
H           2.11925570927794   -1.11642640348404    0.46995820651239
H           0.96825120476865   -1.54678983110613   -0.47798155898341
O           0.46007353218765    2.66682266405189    0.47481093182698
H          -0.48658671744223    2.73146751837422    0.22618175462845
H           0.46296393528155    1.97068184670086    1.14620153424046
H           0.97976517363308    1.81183471825575   -0.72091646422939
O          -1.20763383999763    0.03254093829193   -2.19909637767784
H          -2.04511863431302    1.47996054819809   -1.08476898609686
H          -1.47168130621026   -0.46715548069224   -2.97312886794246
H          -1.08568694030905   -0.63905195197030   -1.47454499739687
N           1.19621138168542    1.12052829593902   -1.51267303213082
H           1.59480639185286    0.22436630533074   -1.07565017830277
H           1.83185998203876    1.51772726022304   -2.19490934565940
H           0.29337547969700    0.84144323515190   -1.94504010374897
