    26
        -50.46760077  Gyration_radius:  2.41456624017 Dipole_moment: 4.176
 S           0.74828163292642   -1.56829702507529   -0.53216499772974
O           1.18032709221087   -0.26231643536662   -0.09937138257317
O          -0.69210219503295   -1.58707871800592   -0.80483773926788
O           1.17145805972445   -2.66057137372528    0.30908779418331
O           1.44525302184398   -1.80421001323799   -1.94513603313330
H           1.48308911195752   -2.75303637956784   -2.00141310421110
H           1.14058129161244   -1.96310259962342    1.82883800596986
O           1.06889451575813    1.63198619547386   -2.01146712032081
H           1.28568485168800    0.81869563670550   -1.52211540378050
O           0.90691772176721   -1.57326512620002    2.69829859021714
H           0.89471913539212   -2.30363957704327    3.32050644252914
O          -1.39354979117566   -0.73428453768752    1.63164424503634
H          -0.59842156262231   -0.95434737322241    2.16508934620626
H          -1.25033530067578   -1.18037729311060    0.77500973440101
O           1.21478127513508    2.39510329857977    0.57220180187835
H           1.56799925395626    1.52159186220982    0.79069020123149
H           1.29635950264614    2.42947271390380   -0.40464910496678
H          -0.30067611867232    2.04805934438348    0.69003063620443
O          -1.58765948510025    0.61270910746813   -1.84315855089652
H           0.15515092725303    1.50657032547389   -2.29212554157327
H          -1.21252417364031   -0.24025062883238   -1.49324116781044
H          -2.37172763160949    0.36732062971122   -2.33668568942446
N          -1.30999905618945    1.68601883672690    0.64774392193626
H          -1.96578911567611    2.35661426801419    1.03180972629343
H          -1.35183812924171    0.74826843995163    1.16946054072355
H          -1.52487482422827    1.46236638209245   -0.34404517111512
