    26
        -50.47250305  Gyration_radius:  2.48725849943 Dipole_moment: 2.881
 S           1.39325624945390   -1.16221904528787   -1.36093325798898
O           0.15050717800825   -1.63858018227782   -1.95596424640008
O           1.30879117096651   -1.08960449308933    0.08515424267484
O           1.85453806222649    0.06777348357721   -1.97568521621014
O           2.49315335016308   -2.25564631165195   -1.68393881672170
H           2.59835874705283   -2.13619281626453   -2.62149225018338
H           0.96830573553500    1.32837161960836   -1.56900300030205
O           0.44531446382393    2.11204651261106   -1.25522329960914
H           0.53160331061068    2.77757098334667   -1.93930901749496
O          -0.72599778420544    1.06052873745948    2.43639234397266
H          -0.71897546919630    1.52763188783653    3.27200084609821
O          -0.61748615943866   -1.63941407054226    1.89536843533418
H          -0.70286589178039   -0.74950223420603    2.28395141840838
H           0.22277429009017   -1.61530577985364    1.40127280454910
O           1.54085876736544    1.33459868076530    1.18348431592580
H           1.63053833934173    0.42734412505453    0.82844493763908
H           1.31135358855646    1.87371297347804    0.41236389864072
H           0.17826513042902    1.19626451009116    2.02827842171184
O          -1.89649132361999    1.41148255692465   -0.03191173150385
H          -1.11749114878138    1.73104668340135   -0.52530755397664
H          -2.00262565897022   -0.15330588802709   -0.32721185108191
H          -1.62467905983125    1.40989242055263    0.90364844805916
N          -1.87424966860588   -1.20697144613017   -0.37191114402656
H          -1.10179808289077   -1.41852125022038   -1.06818152837643
H          -2.73308432927565   -1.68107103524659   -0.62580883584321
H          -1.51187379702483   -1.51193062190894    0.58152165670434
