    26
        -50.45996613  Gyration_radius:  2.46136265273 Dipole_moment: 6.427
 S           1.60075943540674    1.32711566631323   -0.09277100086397
O           0.49590571078891    1.68160440180161    0.79722586818449
O           1.16927384382073    1.16057745211001   -1.46276351450051
O           2.36213060250451    0.20851084294773    0.42787693781011
O           2.57786670144633    2.57029408816678   -0.08080492882869
H           2.97767328172485    2.48184586847562    0.77720233756180
H           1.82264350961720   -1.28264832858797    0.19149025517916
O          -2.39361645943810    0.26375839734975   -0.95795603961108
H          -2.10911496559716    1.16922763613257   -1.23854372836450
O           1.45687188231827   -2.18700073671906    0.01240927853433
H           2.19613375356225   -2.70688727278580   -0.30716109281391
O          -1.10201753359702    2.54846836682416   -1.33443578969010
H          -0.25439692299649    2.12749150559069   -1.57523902475703
H          -0.95816590174079    2.87570800662626   -0.44143254124790
O          -1.53591196712713    0.27649662473443    1.35799273842396
H          -0.70472756503093    0.84096325606799    1.21549783050820
H          -2.00980006089755    0.25953375635335    0.36998178898278
H          -1.22697363414964   -0.71366732386911    1.55790503248614
O          -0.28905689659745   -1.07245848535344   -1.81955036360335
H          -1.73855008344104   -0.34465000117090   -1.38359590649134
H           0.26917506956419   -0.27762076893757   -1.89881262261247
H           0.21035088821481   -1.66278689939519   -1.23358095093575
N          -0.79541550040093   -2.13552020802305    1.76108984713998
H          -1.49738579982811   -2.79071419164483    1.44105881183072
H          -0.56726662726557   -2.35232804288689    2.72247395406074
H           0.04361521913975   -2.26531360011662    1.19444280361989
