    26
        -50.45996628  Gyration_radius:  2.46157621715 Dipole_moment: 6.430
 S          -1.93328673705077   -0.46428066636730    0.61928466255735
O          -1.16010862749249   -0.36653097055132    1.83725273364469
O          -1.31440066260409   -1.35673695584398   -0.35991225086311
O          -2.27225633600850    0.81600949646241    0.02929914518725
O          -3.30465914435198   -1.14490201072156    1.01481424057447
H          -3.82639517456500   -0.97284545030631    0.23905008344930
H          -1.12923880537419    1.92857284189019   -0.12942092501379
O           2.22812206391662   -1.19605922224399    0.57501996699669
H           1.67195621949735   -1.84762756250137    1.07046087362190
O          -0.39370411047248    2.59061692961264   -0.19710673345187
H          -0.75571043602192    3.41458010927296    0.13293854328229
O           0.24041823507087   -2.62087659187152    1.60011901141319
H          -0.27679153971421   -1.84583433380169    1.89261894945171
H          -0.23116837808190   -2.94181186954444    0.82572259763069
O           1.12312204692423    1.01558561080812    1.49624099066317
H           0.32498345154838    0.56208161734306    1.82322553087584
H           2.00086146766967   -0.32025137305269    0.97671804377308
H           0.78546560861459    1.70173163528104    0.89930285567348
O           0.92035689375556   -1.06548847078321   -1.51642575735477
H           1.57765400926376   -1.15917011135836   -0.64557246591613
H          -0.00989897144687   -1.18450146369110   -1.12866817890882
H           1.00819258932958   -0.06663008158054   -1.85046283604663
N           1.16361919925640    1.36944731260285   -2.24988846229353
H           0.60862995243538    1.91378130168567   -1.58839004935927
H           0.82833791517535    1.56533905964479   -3.18395765882358
H           2.12589930071548    1.67580122961864   -2.18226294076265
