    26
        -50.47250262  Gyration_radius:  2.48709970129 Dipole_moment: 2.870
 S          -1.69670860768394   -0.59068921745455    1.38389621974997
O          -0.89543436047452   -1.37402728574019    0.46300876041944
O          -2.40524166714627    0.48884825055836    0.70734913173255
O          -0.95507256680621   -0.11668735141354    2.53684623757546
O          -2.80522830425963   -1.57218839912341    1.94765489050376
H          -3.17152933969332   -1.04921958569980    2.65260396499904
H           0.33577759439267    0.72331792201121    2.12724071383064
O           1.16933998714435    1.18930516927624    1.85477886980081
H           1.38971392611898    1.77912219129085    2.57722134838021
O           2.15782756829245   -0.57025676796224   -1.61553811152803
H           2.98703425803591   -0.91077045340949   -1.95168518037429
O          -0.44100366769862   -1.28193176512680   -2.19602854652799
H          -0.67399630413619   -1.57625537846771   -1.29603367956997
H           0.52281293289967   -1.13898059772162   -2.16899950380712
O           1.74900334659491   -1.33825875247856    0.83970723845030
H           1.81876663189531   -0.51832312664513    1.35026808924656
H           0.78751659958649   -1.51167238860675    0.78773472762220
H           2.06419611546822   -0.92265589732087   -0.68305264847736
O           1.20182968455970    1.87737470001745   -0.79026358480008
H          -0.29414339990454    1.57504335213672   -1.25669281169876
H           1.22133286120624    1.73061120533222    0.17438683653716
H           1.67743086882359    1.11911815185491   -1.17496069854616
N          -1.22341760718985    1.13527686942141   -1.52456394797594
H          -1.76174581591413    0.92730690187897   -0.63406470299851
H          -0.99978239040099    0.19346668878083   -1.96798226699673
H          -1.75927834371080    1.73312556461043   -2.14283134554686
