    26
        -50.47250305  Gyration_radius:  2.48723569592 Dipole_moment: 2.886
 S          -0.75127096822951   -1.50448108131424    1.52210744248249
O           0.44589961015531   -0.68606594899199    1.49646425109520
O          -0.83314324485399   -2.38700107229304    0.36455139015941
O          -1.96963037682700   -0.74068223627075    1.71131994690370
O          -0.61709778404587   -2.44195913121608    2.79211121232242
H          -1.48552709244143   -2.82810921637330    2.82592581515361
H          -2.14818449502338    0.40628652505020    0.61929189013343
O          -2.21173742575725    1.15536420223348   -0.02951772320599
H          -3.14521473209143    1.35744244725479   -0.10803195010045
O           1.61797699526730    2.08363916423193   -0.79475225957255
H           2.08305027746140    2.91939121912692   -0.83605470571741
O           2.53367550422148   -0.44627595317939   -0.19813003360330
H           1.98330294945782   -0.57406214089327    0.59659731024301
H           2.41685257181451    0.49258060935011   -0.43290006572523
O          -0.48228705103200    0.90489697169921   -2.13117915146125
H           0.08844448557874   -0.57453074337276   -1.95064421045166
H          -1.17489691174491    1.01481586505098   -1.45246147040725
H           0.27058756766799    1.43820444115252   -1.81834309747311
O           0.09284305307506    1.95586678540488    1.31283897437403
H          -0.80375852374900    1.96435897097879    0.94688299606735
H           0.24712153496752    1.02128784953900    1.55758404858137
H           1.07368581189191    2.10349748622125    0.04542785337106
N           0.57414845548820   -1.46148853966243   -1.62497559902858
H           1.48534564716746   -1.16002512357099   -1.16422380699470
H           0.72618707110509   -2.11029220905346   -2.38836285424153
H          -0.01637293952355   -1.90265913110301   -0.86152621290406
