    26
        -50.45996599  Gyration_radius:  2.4618976207 Dipole_moment: 6.419
 S          -0.10044503618278   -1.79471301910419    1.05458895251877
O           1.08967174672032   -0.96827020948636    1.25076416132126
O          -0.28984933119026   -2.16125056424557   -0.33139514792627
O          -1.26793257675305   -1.19888491385482    1.67427616702553
O           0.17526623072351   -3.14021126698026    1.83845136236647
H           0.04735578055717   -2.85884816767244    2.73735863137212
H          -2.05148219567595   -0.03201422505090    0.90254316473651
O           1.49317052601979    0.61543229289897   -2.02888449972903
H           1.88922343041067   -0.28550465193914   -1.92408337927938
O          -2.51179005244710    0.67631680756735    0.38289450484319
H          -3.44482292768155    0.45960384790838    0.41968895180529
O           2.20791126204572   -1.79368370171887   -1.18332386793543
H           2.57937960470604   -1.62681148250885   -0.31198014077473
H           1.29641789755806   -2.09417477937522   -1.00255471224289
O           1.53697382759729    1.34848192586660    0.32938693630109
H           1.58134318195870    1.10149414586174   -0.73673486778185
H           0.67479954105351    1.94494068659970    0.46052819486021
H           1.36834502450372    0.45276870820356    0.77552209592253
O          -1.04833567791108   -0.06916831685438   -1.84280170517260
H           0.52361827817926    0.44864801507128   -2.13856693916411
H          -0.85587313376398   -0.94068647271999   -1.45138764154698
H          -1.64656306976109    0.35565285840805   -1.20815605896800
N          -0.57681956011922    2.76315218211564    0.57029937689305
H          -0.63432432109407    3.30020168731022    1.42554274858056
H          -1.35496884548318    2.10295836341830    0.55194749504195
H          -0.68026960397489    3.39457023028236   -0.21392378307042
