    26
        -50.47391973  Gyration_radius:  2.43990093896 Dipole_moment: 2.189
 S           0.73072957850506   -0.89537380787416   -1.54968718439858
O           0.08037424430371    0.39053443183224   -1.76436172728794
O           0.04095928278146   -1.66268226326193   -0.52418541830461
O           2.15494028082661   -0.77493921939777   -1.34074011160838
O           0.55698322579351   -1.71765922142999   -2.89064799440334
H           1.33518541317552   -1.44130221162131   -3.36064222137491
H           2.58505138362048    0.04893663002503    0.00558041722051
O           2.75293183702998    0.53416400331758    0.84796259108217
H           3.70391993670375    0.62710866292149    0.92089501482860
O          -1.04119145081171    0.57954164454080    2.29581172338467
H          -1.85670335506341   -0.12331626994785    1.24610118848250
O          -2.39404559719417    1.30274164269814   -1.50333766712307
H          -2.24636270571023    2.17444863912463   -1.12802603812284
H          -1.51106064975277    0.99675830230322   -1.79966416312975
O           0.92893819077392   -1.18881122989097    2.03699776924098
H          -0.34041107186191   -0.09715454937962    2.45123687035986
H           0.66857576158327   -1.54710450713627    1.17279422726503
H           1.68302663513094   -0.60769358442433    1.84981962794655
O           0.36635377980515    1.91072364285659    0.44891569651047
H           1.26771126108634    1.70283440529415    0.73439108722974
H           0.26320104975072    1.43477761021875   -0.39537980040841
H          -0.59086882768775    1.25524138304832    1.73997777657698
N          -2.23201046912982   -0.62130893357281    0.34927740219516
H          -2.99636898791648   -1.25477498270022    0.55240800070081
H          -1.40672528330070   -1.13797065160778   -0.04608487122949
H          -2.50313345242463    0.11228043405184   -0.34941219571003
