    26
        -50.47398721  Gyration_radius:  2.4380726344 Dipole_moment: 2.215
 S          -1.82582845278684   -0.57753246671928    0.16100112817505
O          -0.81046818241434   -1.58771884593045   -0.13274578385869
O          -1.53009354457582    0.66624155533061   -0.52280183785588
O          -2.07481085249689   -0.43772356886536    1.57679161636560
O          -3.17651267014356   -1.11382642442379   -0.46514968442094
H          -3.51337607179914   -1.61662975492047    0.26753651688584
H          -0.87712696009417    0.30460029872147    2.41384002081918
O           2.56346003450105    0.15979287577673   -0.18618083982364
H           1.74045137201724   -0.43362242174416   -1.29582651835777
O          -0.08431550316657    0.69642899345793    2.85004503245512
H          -0.33372173916129    0.86811170889980    3.75922451661155
O          -0.39024523172480    1.32033522194300   -2.82619906211057
H          -1.00167809318581    1.14460146201205   -2.08159462744023
H           0.04069900000554    2.15113098334290   -2.61061794296889
O           1.30738334461936   -1.36184771744588    1.59867200563607
H           0.53764431011911   -1.60404869412877    1.05720805237737
H           2.33794046236111   -0.46734196382730    0.54062301224046
H           0.98055956187864   -0.69408671495868    2.22157608030471
O           0.65762431168101    1.91862781532768    0.46160260367282
H          -0.16190667455439    1.55897783840264    0.07727778770071
H           0.56860121576324    1.74979290151411    1.41073924677368
H           2.03228640545012    0.96133196401701    0.02553402387065
N           0.95766753782061   -0.82498711507227   -1.94913951760139
H           1.30807603038698   -1.53839314988251   -2.57782457714897
H           0.52356123752889   -0.02498580606914   -2.46856369945202
H           0.22412917204422   -1.21722897512530   -1.30502755275702
