    26
        -50.45996596  Gyration_radius:  2.46182738039 Dipole_moment: 6.427
 S          -1.82633943212472   -0.87940188815367   -0.48022760402856
O          -2.15778137758139    0.22102452516640    0.39744876858719
O          -0.79606162956367   -1.74851030476956    0.08632107935527
O          -1.49602543076371   -0.47801931662610   -1.83370216993289
O          -3.12834958420970   -1.77012905789185   -0.59083110273253
H          -2.91851843491718   -2.30907904363396   -1.34523210998046
H          -0.47195660053466    0.73411287776146   -2.06262344887490
O           0.98965238499915    0.52591907485469    2.33788246428367
H           0.17957947404694    0.09085843711727    2.70403774351173
O           0.15573602294650    1.49638028794718   -2.15581529950217
H          -0.24056065637722    2.08050332883882   -2.80436949122964
O          -1.27080280584365   -0.81497157601835    2.68652808120464
H          -1.75125581543693   -0.35890529490872    1.96888849139737
H          -1.07632667024598   -1.68509253028357    2.32579986340011
O           1.60428334429391   -1.14767638411329    0.62859586928272
H           2.01412477672731   -0.59962556483272   -0.17642986711481
H           1.42148085181040   -0.42556901252561    1.43184393701174
H           0.67288339331739   -1.44839186135733    0.36058110744818
O          -0.18739257139711    2.04811691126042    0.53264431893899
H           0.08303742846681    2.03478468423134   -0.39896368433149
H          -1.02155057183672    1.54460363464332    0.55188618053133
H           0.64177354407615    1.24727791937972    1.75595745844653
N           2.56685230657037    0.24868459390057   -1.28220646319200
H           3.03545494025442   -0.28438543142887   -2.00296618638813
H           3.20787969081067    0.94931193344376   -0.93196871802303
H           1.77018343250230    0.72817905799715   -1.70307921807008
