    26
        -50.47391884  Gyration_radius:  2.43990688804 Dipole_moment: 2.210
 S           1.32174693039009    0.66014681434346   -1.24558494063460
O           0.50233336524407    1.59580308133859   -0.49132496173165
O           0.54715955000960   -0.50771406961029   -1.64440032469068
O           2.56726027240402    0.31262418777112   -0.60212312075228
O           1.71647202859304    1.41472266246891   -2.57935924359633
H           2.52902270040405    0.97032394805321   -2.79184276777056
H           2.40526892313376   -0.48767835950776    0.81557125329572
O           2.21555863879732   -0.94096496078848    1.67100730514582
H           3.06509142634691   -1.18509868365850    2.04115660595988
O          -1.78353506472098   -0.25428753570211    1.85612929609648
H          -2.09425503862126    0.51393038345491    0.60092582372865
O          -2.00879508983511   -0.95664377128510   -2.17677883109953
H          -2.14912749050636   -1.81873016294229   -1.77719455834463
H          -1.03680340982781   -0.82773041564022   -2.17723175103903
O          -0.14068444271706   -1.91744119636168    0.55322134064523
H          -1.31393563764329   -1.02955097152752    1.47287516184560
H           0.10809632747890   -1.48346419337263   -0.28330593629800
H           0.65125252676961   -1.84817436785278    1.10558494346111
O           0.45605933221747    1.13409494711324    2.22156770995275
H           1.11309878850596    0.42269243781490    2.28222936987936
H           0.54394803514617    1.47910551401725    1.31816487324230
H          -1.05455259613361    0.30100295379361    2.22123059263245
N          -2.07846255796756    1.01499034644103   -0.36930391252208
H          -2.25042068168274    0.29906751777541   -1.11616217591782
H          -1.09211988662638    1.35760808242213   -0.48797052410849
H          -2.73967693916815    1.78136579141101   -0.41708123740714
