    26
        -50.47392087  Gyration_radius:  2.44011323365 Dipole_moment: 2.171
 S          -1.51067640593959    1.20152406057679   -0.08398239726028
O          -1.34955972042941    0.16717583476561   -1.09447858604827
O          -0.22136862479739    1.76405593633387    0.29417788096126
O          -2.30279867216437    0.79706740355081    1.05440928820605
O          -2.32378275432911    2.36519091600801   -0.78359989869321
H          -2.78739537682801    2.72028148110045   -0.03406238731779
H          -1.64769935987082   -0.40654818253419    1.94928865166159
O           1.68188052806676   -1.93480701296457   -0.34478064675998
H           1.44112451792467   -0.93057081533790   -1.43781949604442
O          -1.19523020918968   -1.15024855180501    2.41325227450735
H          -1.73152070593426   -1.35578608289484    3.18036456728664
O           2.10317546928354    2.10188308645161   -0.93181101832296
H           2.72962637270516    1.89630310227630   -0.23333717180093
H           1.23478280706784    2.18197984910015   -0.48386204902574
O           1.24596066472058   -0.11221077886395    1.56554174690497
H           0.58215790338374   -0.57310295038920    2.09845878018519
H           1.72948567107263   -1.33509516491161    0.43407933142933
H           0.75786084984936    0.62461341834695    1.15454764450771
O          -0.93112227674109   -2.35414744274448   -0.07465173974717
H          -1.05553758697545   -2.17663253579786    0.87106817037018
H          -1.23905441365034   -1.54951788248091   -0.52274736377369
H           0.78191631377423   -2.33289585376681   -0.27623382543327
N           1.09934608645937   -0.10470554711093   -2.06561179307414
H           0.09148305255921    0.04158698108187   -1.80625685650306
H           1.19641718218527   -0.30735435972886   -3.05370499604364
H           1.62052868767756    0.76196108156274   -1.78824811014285
