    26
        -50.47398725  Gyration_radius:  2.43781918492 Dipole_moment: 2.213
 S           0.29234423556519    1.90038254794187    0.01807984248048
O           1.31684670268286    1.04372140658119    0.61327804941013
O          -1.03456395487901    1.38115311888629    0.28589154795614
O           0.55250901797676    2.19034971280733   -1.37269313063103
O           0.38296329587676    3.28759855563347    0.77396423880477
H           1.02326920804418    3.73322184973293    0.23141162598960
H           0.30358117318544    0.93149224332829   -2.39224540077398
O           0.19808007907251    0.10821212665596   -2.92470136087942
H           0.27729274197761    0.36930568384168   -3.84331527894804
O           0.21563571322957   -2.56239545237526    0.13808032392828
H           0.29935618418414   -1.70924891914672    1.37362397862703
O          -2.16544771005594    0.04003504076642    2.27500853460935
H          -1.87411292407284    0.70852930958860    1.62125948371117
H          -2.80388212305004   -0.50763534002620    1.81136598380844
O           1.97866621677692   -0.99863549269099   -1.09662059182238
H           0.98783368109479   -2.20643750012722   -0.36133448952523
H           1.48649088420941   -0.75211352107895   -1.89526357009546
H           1.91516853794519   -0.22705068250105   -0.50933027438924
O          -1.55274932733305   -0.92917685490236   -1.02484655301255
H          -1.46576912451938   -0.08172779097604   -0.55272755871057
H          -1.12189493843700   -0.77105469196989   -1.87720976569872
H          -0.55975962717668   -2.15493893977742   -0.31156145344223
N           0.33770107527582   -0.90596771066981    2.11245942667313
H           0.78155366802183   -0.09027203274591    1.61813609924656
H           0.87202148293608   -1.16838207757149    2.93260395549485
H          -0.64313415848787   -0.62896456919579    2.35668633711610
