    26
        -50.44218251  Gyration_radius:  2.62675826103 Dipole_moment: 1.581
 S           1.61049223094022   -0.09892538168984   -2.08613533589165
O           1.51143570728346    1.32505553986322   -2.06431074123231
O           0.39623976922160   -0.85089408662489   -2.08604076472787
O           2.52470744595870   -0.57014120036613   -0.96175949030681
O           2.40269872319738   -0.49605507596236   -3.39181339517980
H           3.05549484823169    0.18542590400875   -3.53600786955656
H           2.13607103142195   -1.46661628372501   -0.57021708098448
O          -0.11256143137061   -0.96921303113126    1.30955780221187
H          -0.53243193225142   -0.59639529402273    2.11589437242963
O          -1.96962534214705    1.89931975084964    0.12032602674866
H          -2.08043290545273    2.57430381480685   -0.55009704114178
O           1.34822470637017   -2.58954445149816   -0.11499614453032
H           0.71265073745013   -2.65457851561316   -0.83867572223871
H           0.85756122935676   -2.14153428786076    0.61766645580397
O          -1.94739982800254   -0.74964233645892   -0.59268703236113
H          -1.31020024246158   -0.76926058710181   -1.31904788343672
H          -0.85430180427987   -0.99040977140904    0.65533474163389
H          -2.13176828553452    0.19173853258043   -0.40953845788502
O           0.63008170220303    1.55799706028889    0.54014187753029
H           0.57662885393129    0.63040007919337    0.84347299019503
H           1.03234031572359    1.55862297254492   -0.33866917117124
H          -1.00195071635265    1.87582020471459    0.32695903934278
N          -1.56618835066160    0.56928579797894    3.00108508586352
H          -0.97796072327582    1.27152847894196    3.43266818667985
H          -2.26801520399912    0.28954827931838    3.67465090561897
H          -2.04179051548695    1.01416385837489    2.22223865659206
