    26
        -50.45054795  Gyration_radius:  2.51963094507 Dipole_moment: 7.517
 S           0.41226888464237   -0.61968101913299   -1.17549904336152
O          -0.73386712783193   -1.24188923462038   -0.36852269361570
O           1.54343547442675   -0.33661187745104   -0.34624250867452
O          -0.11238389384950    0.53875095168867   -1.87269823792226
O           0.75219303720042   -1.71197460799657   -2.18327036076175
H          -0.11655464311902   -1.81287449107402   -2.72702365820223
H          -0.26712841297690    1.82049028276820   -0.83480961237776
O          -0.42786789881497    2.46923207101003   -0.11198623044718
H          -0.82703033030388    3.24005675081133   -0.51942643535396
O           0.54545869337632    0.39820281798202    3.18908550939278
H           0.67988216729584    0.71317798936158    4.08331420803984
O           1.38012737995863   -2.04825166610092    1.90668711956973
H           1.07666704945104   -1.36210136202262    2.51368065523712
H           1.58242039356635   -1.59270855786475    1.08214472933966
O           1.85762608882948    1.78114065119963    1.36154807215850
H           1.13228050296642    0.93870935629051    2.59953819785236
H           2.03556202220393    1.03767053501252    0.76395259730007
H           1.15487221358650    2.28300955319168    0.92428056340843
O          -1.43866643699351    0.40824963752600    1.38952285034209
H          -1.06084228448759   -0.62084177732742    0.40343000536413
H          -0.82406685650225    0.30145242599034    2.14762556113794
H          -1.19525079885321    1.25371196533269    0.96970553181462
N          -1.55509490200341   -1.55513153871459   -3.25947698532308
H          -1.83237126651421   -1.74927038043760   -4.21247721609021
H          -1.54483360231541   -0.55333885952027   -3.10026643798929
H          -2.21683545292725   -1.97917964591117   -2.62281616081383
