    26
        -50.45538181  Gyration_radius:  2.56581555589 Dipole_moment: 4.088
 S           0.00698241386143   -0.89616474724835   -0.54598282065198
O           0.54166860768740    0.47266813823474   -0.33933516350753
O           0.10530449000905   -1.63877831997887    0.70833245458568
O          -1.32642364159467   -0.85008673665576   -1.09387002858830
O           0.96013099697650   -1.58983219080636   -1.54384955613299
O          -1.21038948352597    1.29276002466036    2.90750277207293
H          -1.29922217569162    0.98158167055749    3.81067619000997
O           1.85091678937015   -1.16662836495260    2.55749424416542
H           1.18896612380782   -1.49796767931252    1.89609185486086
H           2.70476442545763   -1.49346611072509    2.26817800844370
O           1.12970546540074    1.19170336443343    1.93592557069535
H           0.20097041679620    1.31783498488798    2.37440689805602
H           1.51377580620267    0.31859681854071    2.30709935606948
H           0.90039798910920    0.93673012091258    0.91346587996097
O          -2.22503619392540   -0.62929988576171    1.45825775212249
H          -1.44948153708383   -1.21624667938733    1.40412451456649
H          -1.69301132287123    0.63091118689861    2.33853607977620
H          -2.42941006838470   -0.47476187499307    0.52620917098891
O          -0.35530132532406   -0.87835259598936   -3.60079476185571
H          -1.11694613342428   -0.92184808711805   -3.00293672639537
H          -0.09810798042459    0.07681051413770   -3.60785563119828
H           0.56204936132164   -1.40000908046448   -2.45438303785409
N           0.32012626475291    1.64773093151570   -2.97030935244837
H           1.19605014366432    2.07281070738391   -3.24714602871249
H           0.41447968790237    1.34762095855816   -2.00044466885598
H          -0.39295910006776    2.36568293265938   -2.99939298015974
