    26
        -50.44218296  Gyration_radius:  2.62724523675 Dipole_moment: 1.557
 S          -1.60778716671981   -1.65776197982746    1.27582923079784
O          -1.36919644339155   -1.82575241422214   -0.12224197007466
O          -2.28494595354016   -0.47400433054763    1.69794914343851
O          -0.30948355393428   -1.81672276447991    2.05738553799353
O          -2.47271183696308   -2.88947591167637    1.75028174212795
H          -2.86343684666427   -2.64716917093661    2.58699524269625
H           0.42275472622307   -2.20802672128057    1.40985912076885
O           1.59241799897888   -0.10425550578309   -0.33259854520516
H           2.07451730698092    0.73171187220060   -0.51788750271256
O          -1.00167907536774    2.28303936556472   -1.13615695552563
H          -1.91998502959033    2.54396735353652   -1.05890904257957
O           1.27814201058737   -2.60771646818726    0.31607330613881
H           0.61409790296775   -2.78309179197515   -0.36231394328592
H           1.65148100143775   -1.72107222597166    0.08620610203742
O          -0.21698253052735    1.28259650315526    1.19491430308972
H          -0.94243673100551    0.71620538403260    1.48982303376050
H           0.48754039456406    0.70548525865745    0.84021027937849
H          -0.71567315117768    2.01767371617777   -0.22649526742160
O          -0.35555238847755   -0.19107886027501   -2.13046573736675
H           0.95746957163699   -0.17281322357473   -1.08813151971166
H          -0.91482161578743   -0.78312207193037   -1.61017927611438
H          -0.66475418891357    0.71694913935624   -1.94714261674916
N           2.18702367430555    2.45607143838210   -0.98935007540511
H           2.83143736229898    2.79537731628406   -1.69221618226840
H           2.29885555968734    3.02459824976527   -0.15893094348724
H           1.24370899241745    2.60838784355093   -1.33250745431760
