    26
        -50.44218304  Gyration_radius:  2.62757706649 Dipole_moment: 1.556
 S           1.90651563793273   -0.16195780244647    1.81787156254061
O           1.23112969424827   -1.34170791129977    1.38001890229954
O           1.14422467553761    0.81921015479458    2.52093142290153
O           2.63994959380275    0.49122962271804    0.65281417104001
O           3.07527408226223   -0.62346058576604    2.77251972696404
H           3.34039570268488    0.14387182368319    3.27480157445968
H           2.64339827310802   -0.18097597973138   -0.15716980393637
O           0.05647707922496   -0.16069158011154   -1.62159020723143
H          -0.66697048819505    0.24890312916858   -2.14537351088266
O          -2.60174066305984    0.38156569355253    0.76890135961034
H          -2.86259440103565    0.50556593745746    1.68208686290054
O           2.40059550762557   -1.19802540571051   -1.15507775829727
H           2.06319763303118   -1.90782583518594   -0.59453972261850
H           1.59897874613676   -0.80351874914263   -1.57931846541049
O          -0.33160271397997    1.69675017812551    0.36030652475535
H          -1.81735921205678    0.96826410471514    0.62668030282338
H           0.21700472029637    1.51229482586761    1.13426441974827
H          -0.00802363506151    1.14023242733062   -0.37515139832741
O          -1.15586542834649   -1.83368731583052    0.04121480571883
H          -0.43538920257620   -1.83881135259772    0.68532595184723
H          -1.80277630825712   -1.17157167185015    0.35242391822593
H          -0.40780945051715   -0.86417576964732   -1.10362092904240
N          -2.30860924776756    0.93173709279836   -2.36650506965419
H          -2.25488193435718    1.94284938652504   -2.37034037401843
H          -2.73531312736100    0.65721368894745   -1.48714622357013
H          -2.92820552332967    0.64672193365937   -3.11432803285198
