    26
        -50.44218315  Gyration_radius:  2.62824355169 Dipole_moment: 1.539
 S           1.61562579011980    0.74813752943792    1.95039195088966
O           0.47239903896611    1.43303990366232    2.46216454268948
O           1.97898735854245    0.98361887786028    0.58939400594630
O           1.48181876333009   -0.74716577712259    2.21145606734039
O           2.85087108334457    1.16476046816627    2.83975127533830
H           2.52442012073057    1.27480001732786    3.73008391785648
H           1.87818141835061   -1.26576029685897    1.38576473931990
O          -1.92433738323794    1.71513020503611   -0.92897674457040
H          -2.08266885713386    2.58102075902488   -0.55148092682725
O          -0.04513507983607   -1.37006679349465   -0.87613823961876
H          -0.89175221133569   -1.60397004320670   -1.31672214858242
O           2.34011713937020   -1.74553330779097    0.10275960686042
H           2.70499595117100   -0.92944181877959   -0.26160441723927
H           1.46261763244641   -1.85408944734056   -0.34048562513765
O           0.58122605600784    1.03061955492154   -1.81378557450303
H          -0.29880927983719    1.41192269397473   -1.63002151339190
H           1.14459902982349    1.26269256702143   -1.06359215940170
H           0.22617240322226   -0.53583562505954   -1.33338906246719
O          -1.42604167838165    0.01505181581035    1.04828507948650
H          -0.89240191276633   -0.61453136277122    0.52473621938411
H          -0.82868991301421    0.48133364742296    1.64818146016749
H          -1.84906142434647    1.09260013830220   -0.16301052225593
N          -2.51185192959951   -1.24060934382933   -1.98970830053788
H          -3.22727630853287   -1.53864563177962   -1.33812542514786
H          -2.79539934028435   -1.52324198390000   -2.91928362739363
H          -2.48860647712372   -0.22583675604127   -1.96664457820544
