    26
        -50.44218289  Gyration_radius:  2.62721296063 Dipole_moment: 1.564
 S          -2.09017079418671   -0.62399036982752    1.48435635911526
O          -1.58111922566676   -1.56144058658146    0.53474811492398
O          -2.64594660696974    0.59288149388268    0.98612489912222
O          -1.03632319837222   -0.31574178688175    2.54098218661779
O          -3.22234846968823   -1.35925843936015    2.30150273095776
H          -3.74123936562425   -0.67994545969120    2.72656877793001
H          -0.25151944697239   -1.01006238727565    2.44090758880048
O           1.59080842157575   -0.28334635410666    0.22415824829335
H           2.22753313101609    0.29511594789420   -0.25075236957814
O          -0.35590471541691    1.22801057555723   -2.42238582576969
H          -1.21676116189426    1.48909288183618   -2.75115932861649
O           0.74874942632979   -1.96712114087886    2.02529799931866
H           0.23048725331298   -2.49476373517072    1.40492030916740
H           1.29907881148635   -1.37217768488025    1.45834715145500
O           0.09519563154923   -1.37300830840075   -1.67593161094842
H          -0.65097558195931   -1.55904083539152   -1.09059082816614
H          -0.09947255843478   -0.52176449095666   -2.11324119288963
H           1.13433089466750   -0.76815817136540   -0.50739984979119
O          -0.26640037401009    1.73600169165813    0.18222084369441
H          -0.32060753089619    1.52887223398483   -1.48006289568218
H          -1.11898900484436    1.44337621549191    0.53078540232949
H           0.39837903479396    1.05617610008570    0.40857868030862
N           2.71001157702273    1.44273614057665   -1.53904860645908
H           1.90214670880675    1.37435812792325   -2.15013517403875
H           3.53939661522364    1.32049959182396   -2.10612407010941
H           2.72166052916175    2.38269875003332   -1.16266756998103
