    26
        -50.44218313  Gyration_radius:  2.6277181195 Dipole_moment: 1.546
 S           1.38755498815698    1.41001687892472    1.74740080885917
O           1.82728145391389    1.31398374829732    0.39199419130921
O           1.37664285581427    0.21599997009219    2.52983859639272
O           0.02274200694766    2.08423648179890    1.81473790883072
O           2.33927354983049    2.43916783182360    2.47230848786173
H           2.23643170270644    2.29713341899546    3.41075654042909
H          -0.18973085782660    2.50014067869816    0.87121883279971
O           0.53539314286137   -2.66415344367797   -0.35269343788054
H           1.18631335891146   -3.13946399713684    0.16472236887192
O          -1.16640342965724    0.44918799235495   -1.04473402316774
H          -1.78070681170108   -0.24594341209758   -1.36890224752918
O          -0.31686201874758    2.85616597757705   -0.52356363383808
H          -0.83838724283889    2.07391338066819   -0.83079040980104
H           0.58527051579013    2.68884896948582   -0.82362591701963
O           1.25376446349650   -0.39811562661481   -1.72283364370209
H          -0.29296063142044    0.17262492269139   -1.41793208637456
H           1.70975734225338    0.12340246311884   -1.04896204802267
H           1.12681217229719   -1.29010426757365   -1.34611041257685
O          -0.75327570182770   -0.98958056622245    1.25496422643206
H          -0.07224069214839   -0.58678025026282    1.80991824797060
H          -1.00177887896568   -0.34035720244285    0.56793886895657
H           0.00699001154571   -2.13297812672832    0.29413776481895
N          -2.26693281749491   -1.93643895989930   -1.70639536198275
H          -1.38241550755471   -2.40966252804203   -1.54998586470188
H          -2.62510076001774   -2.23716019521444   -2.60401204557939
H          -2.90743220435172   -2.25408415861339   -0.98939569131036
