    26
        -50.44218323  Gyration_radius:  2.62847002107 Dipole_moment: 1.529
 S          -1.13988117753507    2.29982507454938   -0.62331792562698
O           0.28286546142099    2.17538199314321   -0.63409055755267
O          -1.81067435275608    2.16603294305953    0.62971586626845
O          -1.76140440403235    1.35560109584044   -1.64512865337241
O          -1.48490640074762    3.73118714091754   -1.19156391773899
H          -2.38243495309067    3.92310814436032   -0.92894628285297
H          -0.99452598810449    0.97817180276013   -2.25942085064952
O           0.65876531826493   -0.55035205516242    2.60266575149344
H           0.45867104382372    0.03864218212287    3.33092717791427
O           0.48439075068786   -1.23639385105074   -0.94123682357041
H           0.57866234577881   -2.12026056803696   -0.52242593102039
O           0.22408955202667    0.49630978794616   -2.86940962025123
H           0.85806936526676    1.12302896728982   -2.49908390919464
H           0.34028222382671   -0.32996651921878   -2.33830152697320
O           2.08922959071557    0.35718708142203    0.44432539728296
H           1.17994604761163   -0.69621182917938   -0.49058415271424
H           1.62095188712938    1.16746395548359    0.20320221327680
H           1.73641869292029    0.07923919368035    1.31146054354801
O          -1.40174705593798   -0.54710745366058    0.92875610671955
H          -0.89788594014245   -0.78922967835554    0.12704149890536
H          -0.16746469781675   -0.60488720984142    2.06019524174094
H          -1.66853059048234    0.37777804472149    0.84234659465874
N           0.78976302720191   -3.22990983960700    0.86847184526246
H           1.50095251401971   -3.94969139483643    0.89078884727523
H          -0.09753688027745   -3.65673311055110    1.10454555110565
H           1.00393463022791   -2.55821390764504    1.59906754619075
