    26
        -50.44218301  Gyration_radius:  2.62958504897 Dipole_moment: 1.501
 S          -1.03887268132160   -1.90138991569153   -1.51550184310321
O          -1.63613868392448   -2.36897967976076   -0.30616565592933
O           0.37024810180640   -1.66869607567447   -1.51599168039916
O          -1.77962264119959   -0.66638567391917   -2.01349005793323
O          -1.33207841706839   -2.97777519713203   -2.63185543300554
H          -2.19890155940252   -3.33400294547254   -2.44992938138627
H          -1.07701620942166   -0.00198766224251   -2.42903004061760
O           0.78547590537608   -0.55279846898349    2.56797047212540
H           0.66830544572822   -1.40659204794192    2.98586893552634
O           0.34437508997190    1.55125990879702   -0.33292809287980
H           0.41429393710571    2.17857578930981    0.42023820909557
O           0.06975063252921    0.79164375493236   -2.80978390603139
H           0.16851767266886    1.31880180355671   -1.97865497187911
H           0.76241169879050    0.12081431134213   -2.76400748292946
O          -1.37357000632272   -0.01978450919948    1.11862479554245
H          -0.07568399458926   -0.34382287786808    2.12671379115008
H          -0.93756133478138    0.58158797796980    0.48337197761592
H          -1.58830469224173   -0.83820020205894    0.65153951403045
O           2.12741832640290   -0.34342482944800    0.18295086209712
H           1.09817978802456    0.92898813095408   -0.18039334566006
H           1.81459357673103   -0.48948803453902    1.09636327650924
H           1.69382057308032   -1.00941018794169   -0.36707082958379
N           0.65893232510080    2.60887626463450    2.14173809892544
H           1.34223581108955    3.29486724485625    2.43654162074822
H           0.94580113892572    1.70659318913700    2.50842100066949
H          -0.22660981305870    2.84072995239168    2.57446013731721
