    26
        -50.45538175  Gyration_radius:  2.56579221755 Dipole_moment: 4.089
 S           0.95930535675661   -0.37340127699277    0.20383390307212
O          -0.32451770937757    0.17524229598761    0.70681845024800
O           0.78961369297148   -1.72425039982228   -0.27243734419655
O           1.50768282465758    0.54088904257498   -0.79507255836112
O           1.93741426650881   -0.35782831120339    1.39885343089451
O          -1.89340737528546    1.09189830378899   -2.60833670330194
H          -1.74149787508456    1.63560374339684   -3.38395377191356
O           1.03273440492114    3.08200414919240   -0.87577157758792
H           1.52841581743539    3.51211802320842   -0.17657612622026
H           1.35534051954839    2.14371424956258   -0.90703466829098
O          -1.28466901715007    2.15493497433768   -0.38816879696105
H          -1.61855454407574    1.76916544962329   -1.28850908647083
H          -0.91437597574150    1.29170231346516    0.14160805702005
H          -0.43003606138564    2.67982615341722   -0.59278640651136
O           0.04838733590934   -0.65469537347608   -2.65364492682946
H          -1.23465141441995    0.34499163891599   -2.66134675206401
H           0.74952787454439   -0.12629426608723   -2.23175610770472
H           0.00889324438857   -1.43371361325556   -2.08264715667677
O           1.35215267279383   -2.71124886041190    2.16426626180686
H           0.46106927533268   -2.51644238272179    2.54715218222841
H           1.18447399880520   -2.86599639108629    1.22226323820249
H           1.82886611407392   -1.26573168531772    1.83192477804187
N          -1.10446625063849   -1.76010625075564    2.70646095226062
H          -0.94473464118775   -1.03568205714154    2.00696605915294
H          -1.34213925391438   -1.30037849337059    3.57634963786843
H          -1.91082728040248   -2.29632096581521    2.41154502229244
