    26
        -50.44962126  Gyration_radius:  2.52242701361 Dipole_moment: 3.549
 S          -0.29451975366871   -1.05537296775905   -0.79134706618718
O          -1.41200883958736   -0.53781412540900   -1.55685441335493
O          -0.47743195094778   -0.89422228860562    0.64207551780722
O           0.97593592185364   -0.45121833805605   -1.21301217784666
O          -0.17484125228866   -2.59407758566566   -1.04388702504301
H          -0.06780008611459   -2.64503441710345   -2.02307133388643
H           1.25817359731132    0.80931875453493   -0.44845368212518
O           1.43964690834795    1.67743356525973    0.05062235357831
H           2.35522288950379    1.89324954042625   -0.13684586717919
O          -1.62184661326817    1.58843705971979    2.29203181903474
H          -1.95840218689175    2.45700953011108    2.52259489254177
O           1.09011869533315   -1.24596384483935    2.58752152018257
H           0.55862888631047   -1.67742241088686    3.25996414552642
H           0.53310510221718   -1.26895476383548    1.75110941626581
O           0.86025324002934    1.25527614150170    2.49439148688786
H           1.01425844824567    0.22827967629336    2.62624827412488
H           1.14058650183393    1.44040533455237    1.52096583472375
H          -0.18115265289325    1.38307074728977    2.48474635285565
O          -1.46310444256960    1.78492002020558   -0.29725809405950
H          -1.58572020541435    0.93955110995118   -0.78142347059686
H          -1.67599746768442    1.52768956740937    1.29364000247264
H          -0.53640114799107    2.01922285700603   -0.41928994267560
N           0.05449832839250   -1.89119981390514   -3.56366374646954
H          -0.75383263826828   -1.31455744480349   -3.34697895607960
H           0.05349546906431   -2.10092546302804   -4.55437427857830
H           0.86913524911097   -1.32710043037448   -3.34945157191155
