    26
        -50.45841242  Gyration_radius:  2.47278915552 Dipole_moment: 4.874
 S          -0.00970418783350   -0.65703013177999   -0.85151129585238
O           0.40975963666370   -1.46532915484418    0.29380380845766
O           0.91711437331438   -0.70465855159539   -1.95239161695196
O          -0.32268922922841    0.71258017625826   -0.43076125082714
O          -1.38600331967595   -1.26559576987551   -1.30073491139526
H          -1.55180452011247   -0.81749283795637   -2.18304124325349
H          -1.68544194706979    0.61407575763753    0.43042268058613
O          -2.42374100904734    0.29604698892559    1.01276077479419
H          -2.90730473821873   -0.33948266021130    0.47809080335426
O           0.83231289925482    0.87352696940982    3.24474125226093
H           0.38688274278960    1.66390919073143    3.55620698406354
O           3.03543856741012   -0.53029105664721   -0.26257970072615
H           2.78181372350118   -1.28214839263912    0.27975463317578
H           2.44052362960414   -0.56833757546731   -1.03061298074612
O           1.80861450222445    1.54264888620061    0.96434994804904
H           1.30794328470979    1.13937379711713    2.39173166582899
H           2.46524854951772    0.91117934539673    0.60563695105319
H           1.02221234333866    1.41627663859287    0.40130169515804
O          -0.71287072503896   -0.92853677587273    2.43654076425142
H          -0.20404818513097   -1.25981184494228    1.57620915231905
H          -0.07161754202430   -0.19955583555074    2.85315389276239
H          -1.51184262959763   -0.43179819714270    2.02766704753982
N          -1.29189083912982    0.16288841627023   -3.46897723027045
H          -1.51355932862766    1.13667044363312   -3.30597080273900
H          -1.52591343628751   -0.06355389080918   -4.42720077482207
H          -0.28943261524056    0.04444604511511   -3.33859026607709
