    26
        -50.45841235  Gyration_radius:  2.47265740355 Dipole_moment: 4.870
 S          -0.60176864379269   -0.69277340127563   -0.56320320594362
O          -0.20207508032155   -1.38670479892904    0.66142164370102
O          -0.25082946837033   -1.40719285690774   -1.76309257298061
O          -0.10854687986574    0.68845682149501   -0.55896854378843
O          -2.16404796302232   -0.56343302768315   -0.47013887856676
H          -2.41817688586851   -0.25581295172624   -1.39062913113453
H          -0.96665214409961    1.46431921325539    0.56760688552137
O          -1.50646046205417    1.68420518152986    1.37119836693267
H          -2.37518751344725    1.31167663831771    1.19758856275762
O           2.22841646737055    0.86254280778609    2.50399627828348
H           2.31770665286612    1.80958140095756    2.62760719311317
O           2.17522158450650   -2.07036391739138   -0.73919187921446
H           1.39380132256223   -1.92630667752773   -1.29952536358635
H           1.82933809997909   -2.47232064126051    0.06235450759079
O           2.51112110481584    0.51504847049453   -0.02568162849410
H           2.64703176105221   -0.41729529736211   -0.29192791960456
H           1.60612932391765    0.72074257010636   -0.32596269619594
H           2.43221941076659    0.68810038865217    1.52790433495147
O          -0.12445516069646    0.01846613814229    2.70110719897675
H          -0.71138080674445    0.77829778348320    2.33983844107855
H          -0.15834843978856   -0.67281566905951    1.90782842228236
H           0.87315391615413    0.36693307737848    2.69978242376675
N          -2.22978508966073    0.20712574185783   -2.95070806113349
H          -1.92408377051710    1.16454897561029   -3.06813225994603
H          -2.86256181526247   -0.02268185216600   -3.70629968881638
H          -1.40977952046426   -0.39234412774543   -3.01477240953779
