    26
        -50.45841229  Gyration_radius:  2.47246662765 Dipole_moment: 4.874
 S          -0.17757316287850   -0.80823717753963   -0.68833989147740
O          -1.43310059094207   -1.41746936465450   -1.04299226110527
O           0.43859867486982   -1.40060188701973    0.49925551656189
O          -0.27185383419114    0.64878899164314   -0.54946419209171
O           0.85932839257489   -1.03679214226859   -1.84552561870368
H           0.33739159266875   -0.78914631562312   -2.66578476679938
H           1.24165276312642    1.20410280052466   -0.64070252606005
O           2.22934889035216    1.29082753895953   -0.59192131777205
H           2.56379671608578    0.73057735181142   -1.29749209191020
O           0.73666062298300    1.33064794562979    3.10852325335538
H           0.91631751801523    2.27270260644129    3.09085867291546
O          -2.19364714329393   -1.52012883581819    1.56201029790043
H          -1.41253325089365   -1.99122876119306    1.86465319206092
H          -2.14106899042435   -1.55396315182527    0.59181686705280
O           2.19246693670419   -0.02399902772267    1.58119212569431
H           1.49196861601471   -0.70120214607069    1.18291749048262
H           2.37478843056717    0.58461081339868    0.77558473379151
H           1.63848011747386    0.54127955424373    2.28127651846275
O          -1.46579313020774    1.07108264458721    1.81149058322563
H          -1.89124468146735    0.19497378360557    1.91189314635724
H          -0.17615638438670    1.21265881659114    2.68721982668620
H          -1.12338839753734    1.06789196108873    0.89815378454020
N          -0.93035764178036   -0.28693145503981   -3.57354831567173
H          -1.17202858936769   -0.65354571781926   -4.48530036942294
H          -1.06825526082826    0.71541891726685   -3.58380918171994
H          -1.56379819320228   -0.68231776318048   -2.88196545631549
