    26
        -50.45841237  Gyration_radius:  2.47255293564 Dipole_moment: 4.870
 S          -0.56217333777083    0.30416736461119   -0.86606599772169
O          -1.24112772046786   -0.87200183256612   -0.32148127514220
O          -0.20670122001937    0.16500259280390   -2.25439305043441
O           0.57707919331653    0.68021924970617   -0.02254300731243
O          -1.58907801439886    1.48149962387517   -0.70538618830917
H          -1.17267463547376    2.21723765571687   -1.24575668814645
H          -0.05481152687899    1.25840640811292    1.34674581331758
O           0.90149904438870   -2.21705253677349    2.50032236380948
H           1.46019433561887   -1.82759849936288    3.17583443737647
O          -0.65158299669395    1.43795480842578    2.11936338042276
H          -1.38186256855609    1.94717241014070    1.75741355280504
O           0.59958473845608   -2.39757401622539   -1.85843179555171
H           0.40235372526029   -1.51330672491988   -2.21116827923015
H          -0.22653597166021   -2.69355887922278   -1.46656685844235
O           2.01901316639215   -1.55685754269305    0.28308333703393
H           1.37336525929434   -2.05338968922154    1.61992497755390
H           1.68626844271075   -2.04541396122690   -0.49741865083634
H           1.65785467313652   -0.65729504239112    0.17447626141810
O          -1.27640496046348   -1.02421948190770    2.15160128427271
H          -1.07102531647519   -0.03531494345070    2.33118118864654
H          -1.34959792147794   -1.03981257638326    1.10137705904291
H          -0.39513662463517   -1.56901755551757    2.35901786445207
N          -0.08097656725743    2.97808107234620   -2.20087679460677
H           0.73798169967533    3.31649978081234   -1.71228979939776
H          -0.31007481243264    3.63442524147940   -2.93634265953028
H           0.15456989641042    2.08174707385677   -2.62162048546404
