    26
        -50.45841239  Gyration_radius:  2.47293945642 Dipole_moment: 4.868
 S           0.95026325288315   -0.24086315898162   -0.44243306135348
O          -0.06353559658123   -0.96994128161882   -1.20504868175023
O           1.98969003195654   -1.08920658429008    0.08016238527217
O           0.32207176996111    0.59032138009712    0.58976151345986
O           1.57221042743256    0.78109841959984   -1.46000456658878
H           2.37395979947869    1.12849150733028   -0.96692830421479
H          -0.43269358191473    1.78225989555680   -0.19601942649220
O          -3.38895958889249   -0.46694223220002    0.53831935413219
H          -3.80563049604944    0.25269510356053    1.01642188738630
O          -0.91006890803323    2.31973285595874   -0.88055695958964
H          -0.24870834360892    2.51545646135843   -1.54979136738359
O           0.17958343737372   -2.98725583819147    0.78338673896309
H          -0.21153523106962   -3.06978378995092   -0.09062982556236
H           0.97445897627192   -2.44410999377845    0.64763711325522
O          -2.19930687884518    0.23706480115494   -1.55398746032724
H          -2.76978009008710   -0.06381061342165   -0.71740007279912
H          -1.83614411161678    1.17516096571901   -1.35247117041611
H          -1.32543878347694   -0.34732832077942   -1.49501535738854
O          -1.31325268027825   -1.05034302631366    1.93598139250231
H          -0.88916123535863   -1.89923050370962    1.69505604761115
H          -0.69342424466326   -0.37171397194211    1.60941368675165
H          -2.62150361099483   -0.78004573346520    1.11901690920775
N           3.45796612771945    1.30828880551559    0.24786007757462
H           3.14187228943446    1.89953432157019    1.00582480364164
H           4.45234159075349    1.44987413689975    0.12367828937455
H           3.29472568858313    0.34059635444472    0.51776605509589
