    26
        -50.45841244  Gyration_radius:  2.47273925688 Dipole_moment: 4.866
 S           0.23699600399531   -0.80752762498915   -0.67130760243272
O          -0.53600230910491   -1.98902489306469   -0.95367770239375
O           1.11778952592721   -0.95529138913243    0.48775359844512
O          -0.59094592383105    0.39604351351482   -0.54137784724827
O           1.19554689318927   -0.50934736601281   -1.87912921614247
H           0.58849933811384   -0.59503965824109   -2.67322277382622
H           0.41285532906394    1.64888436727040   -0.71591065338441
O           1.21430406941672    2.23464707251865   -0.71966844052336
H           1.76115368035666    1.90445182044339   -1.43768539910403
O           0.07191568506840    1.62586165909713    3.05530921532555
H          -0.26137606008956    2.52468135961085    3.02251390441020
O          -1.03100957484379   -2.37708565415137    1.68801632259821
H          -0.10795784387342   -2.37156491228368    1.95574769513981
H          -1.00566383296191   -2.41186632275686    0.71671213473987
O           1.95288547655159    1.16420663922212    1.46259077999861
H           1.21668089330133    1.38667134506631    2.18694318382272
H           1.68628984659063    0.20942095498345    1.10766914373773
H           1.76067785379691    1.75178889420484    0.64393933067526
O          -1.73206411014450    0.22671902330081    1.87687398171124
H          -0.66558755540092    1.04101912564421    2.68291153328584
H          -1.47511028133833    0.36836721382538    0.94663627702906
H          -1.64092016953118   -0.73939627019907    2.00709733708224
N          -0.79215528124639   -0.85061839390149   -3.51760379008320
H          -1.42839503138499   -0.06381666898822   -3.52804192295056
H          -1.10110263124261   -1.49230639607958   -2.79050852263608
H          -0.84730398035975   -1.31987740888656   -4.41258055727941
