    26
        -50.45841240  Gyration_radius:  2.47266960176 Dipole_moment: 4.873
 S           0.50743069516151   -0.63445027796814   -0.70516545965874
O           0.64601401662948   -2.06740179568048   -0.67809339651861
O           1.54756788081611    0.06214102904722    0.05245769398884
O          -0.82471615501880   -0.18412469030322   -0.28877189353400
O           0.66323561223333   -0.12243212828596   -2.18170712578732
H           0.07018914149388   -0.74522807389790   -2.69865108821507
H          -0.97127798019480    1.33128618725922   -0.82819198943279
O          -0.78193323281999    2.25795130337870   -1.12935508515983
H          -0.37615846872808    2.16093497204821   -1.99510289839769
O          -0.16712266212868    2.02103235135187    2.80539363808211
H          -0.99623748425844    2.49635489806805    2.88751996491624
O           1.27083272815038   -2.02244288185860    1.96409400353829
H           1.99598496483658   -1.39799877878364    1.87534636186464
H           1.04435848483252   -2.26875308556998    1.05126625467066
O           1.03452107469461    2.41404570004507    0.63991466403915
H           0.29324601743447    2.54838200469089   -0.05629498080326
H           0.56499292773560    2.31628507962744    1.58141789985069
H           1.36634177771371    1.44067937259728    0.41364615134120
O          -0.86269780434767   -0.41536413503974    2.37994031757365
H          -0.13615103657820   -1.06481506871980    2.47441263513013
H          -0.41299742489183    1.04177165801113    2.73355921103614
H          -1.02705377911069   -0.37781571408912    1.41918523959258
N          -0.97501112456392   -1.97451793031123   -2.97932370417887
H          -1.93999616991548   -1.76169565205126   -2.76143359927531
H          -0.57844499361821   -2.47385990010313   -2.18603792437116
H          -0.95491702554823   -2.57996444345982   -3.79002491030292
