    26
        -50.45841234  Gyration_radius:  2.47260868902 Dipole_moment: 4.873
 S           0.36370959315433   -0.69161925130094   -0.73955002176193
O           0.48338076653198    0.64476588566272   -1.32339721929324
O          -0.39408744657625   -1.60408476360958   -1.55585179385544
O          -0.13511937234254   -0.61156305777739    0.63730306331668
O           1.83889277645370   -1.21346097847787   -0.60420175048086
H           1.71326740832974   -2.18290691969661   -0.37824890008492
H           1.06185136097836    0.03283222042632    1.50877322074135
O           1.85973409270048    0.54804313696973    1.79766231828880
H           2.60830873429503    0.08670116747057    1.40978244042503
O          -1.13401601456911    3.08691259987825    1.07959251006672
H          -1.20280121942310    3.15887175809012    2.03361009068220
O          -2.22346789794925    0.31952685186432   -2.12729535899764
H          -1.58491413831271    0.95768291492500   -2.45696542010253
H          -1.71991783878511   -0.50679248085310   -2.03304234992274
O          -2.34750653926197    0.89452044426113    0.51117880165254
H          -1.63256791676405    0.25546222221573    0.68961079321577
H          -1.68815259037635    2.28081341145466    0.82003713417847
H          -2.54343313214386    0.77692566702021   -0.44087545776860
O           1.14366695100760    2.43600707989304    0.25648842329040
H           1.52330280280062    1.81687872719466    0.98121269510084
H           0.89508439917142    1.74943766101832   -0.50207225541470
H           0.21035919007216    2.78849266960670    0.60365275448260
N           0.93005983940011   -3.58455270258201   -0.05331337457494
H           1.23495231280435   -4.50272383386186   -0.35041243031449
H           0.16686215881756   -3.28107283175858   -0.65439855235448
H           0.57255171997924   -3.65509759812734    0.89072064952048
