    26
        -50.45866532  Gyration_radius:  2.7044483557 Dipole_moment: 5.344
 S          -2.28292985658815    0.64030561582550    1.18630466659549
O          -2.61064306073457    1.08278414969661   -0.16117294948405
O          -0.94896955268042    1.02961282777220    1.59316379314720
O          -2.54789150484770   -0.78145874010188    1.35823573980827
O          -3.28046516127859    1.39182187119042    2.16719057290153
H          -4.12635832127257    1.04482218409318    1.90240232516877
H          -1.56010496386698   -1.49076222291390    0.41056921204638
O           3.17741330633659   -0.12848107475581    0.69022871365657
H           3.83611931089040   -0.61956476991711    1.18271633319570
O          -0.89980227843635   -1.93625632293960   -0.20074497654764
H          -1.32194397389413   -2.74797892141261   -0.48700707647076
O           2.88447764312521   -0.37738470223009   -1.89970269187868
H           3.34797217262596    0.37771035916784   -2.26611783325043
H           3.05222776629711   -0.34181862086835   -0.92085333910991
O           0.88548628656365   -0.89741176465630    1.72875618985073
H           2.30676166343528   -0.35891908746852    1.10761762992836
H           0.25335327429616   -0.15792044856422    1.83418619500224
H           0.42851802714965   -1.52975224999614    1.16042542004148
O          -0.36277775007338    2.18540172630134   -0.73715766139068
H          -1.32029400577731    1.94908185095120   -0.65327913880710
H          -0.07005480301273    2.12079494025660    0.18371794938378
H           0.04563951570964    0.86760841950682   -1.40975878919467
N           0.23327599304847   -0.10118162578435   -1.85012750752036
H          -0.20025093148372   -0.82487224923921   -1.23405936740895
H           1.27559467086410   -0.25816517185767   -1.91607399333322
H          -0.19435347636788   -0.13801597204676   -2.76945943638699
