    26
        -50.45866520  Gyration_radius:  2.70438104197 Dipole_moment: 5.347
 S           1.24709743311446    2.28527506491829    0.50330933685768
O           1.77652390920773    1.14128174542887   -0.20928634989648
O           0.84033486002760    1.96116762553425    1.86288995659762
O           0.18697036251926    2.97570187962864   -0.21829066902149
O           2.44253207104169    3.32396539997983    0.62176633452772
H           2.02065952350975    4.07350750507681    1.02943572124144
H          -0.95594504330415    1.94783179032651   -0.33845604029768
O           0.23899616842472   -2.53359185135047   -2.02408360616055
H           0.11036359420817   -2.80386158815727   -2.93406787809976
O          -1.68357330033680    1.26087808783526   -0.42088503599151
H          -2.50438516603940    1.75604346426049   -0.43120150821827
O          -1.45155170849069   -3.15436721328014   -0.12371938367726
H          -0.86116350573289   -2.95410923795602   -0.89763426295953
H          -1.05304135906086   -3.90886866583513    0.31346941865956
O           1.36627922270261   -0.55284770338742    1.80872525769056
H           1.83883372001226   -0.45874742060534    0.96867075093743
H           1.23952752322342    0.39426842065689    2.06708643439211
H          -0.10530166804352   -0.79620015459391    1.44808038812778
O           0.24777427661012    0.09538531775241   -2.12391176322657
H           0.92380481258160    0.49086690832600   -1.53728014397629
H           0.30573941529634   -1.54345140236827   -2.04753542427834
H          -0.58860886769089    0.46783284160476   -1.81820952534411
N          -1.15409823425331   -0.85626098994579    1.19452393021982
H          -1.33781041314934   -1.76346928340967    0.68601367348790
H          -1.38361735626725   -0.04591664292804    0.57662903373936
H          -1.70634030007102   -0.80231391752368    2.04396137466459
