    26
        -50.45841239  Gyration_radius:  2.47260666173 Dipole_moment: 4.870
 S          -0.87131125659471   -0.16838609748271   -0.60802722863345
O          -0.62423452084277   -1.41337115741964    0.11989373346730
O          -0.94202643612113   -0.34698056966429   -2.03503965974419
O           0.09345140441755    0.86252374179862   -0.21124384440672
O          -2.25584948503773    0.34919121976747   -0.07718674080138
H          -2.47864144233309    1.08948314228779   -0.71667515501846
H          -0.29142621228446    1.27344740767188    1.30241498185730
O           2.64867769342668   -1.01032722787984    1.98566987043557
H           3.09557960046907   -0.28629101347214    2.42846209942991
O          -0.62208161570362    1.26117162343205    2.23829067770972
H          -1.58024161477910    1.26923543635876    2.16451340279565
O           1.16504952007339   -2.05934156780049   -1.99173661649027
H           0.43566878995832   -1.46527656916507   -2.23739351440097
H           0.78534794020209   -2.65478790653388   -1.33986930740236
O           2.50650512529210   -0.27184006819675   -0.47096736435576
H           1.71398837886312    0.29534445213294   -0.43014206003824
H           2.66602978483934   -0.78691416695391    0.99856057196296
H           2.25928493588974   -0.98623764864968   -1.09313852408811
O           0.18690771374653   -1.13793912257387    2.44520368232787
H           1.23601403762561   -1.12768375137947    2.32058811022235
H          -0.11503230186774   -0.16401765270127    2.55827395607897
H          -0.18532652084698   -1.36703375684439    1.48753350225701
N          -2.30611307732971    2.11646120908293   -1.98118380784520
H          -1.68574694884575    2.89631360641139   -1.80563026371735
H          -3.05873997401274    2.43334428271255   -2.57890602689257
H          -1.77573351822027    1.39991214508653   -2.47226448476218
