    26
        -50.45538172  Gyration_radius:  2.56583798002 Dipole_moment: 4.090
 S           1.04759207887714   -0.05298445908531   -0.00879630837555
O          -0.22127659462688   -0.09255711909577    0.75966227157772
O           2.18315898017806    0.06168245364696    1.03165822358279
O           1.21565988355924   -1.25613893165849   -0.78638610166237
O           1.08447473628873    1.17335834967093   -0.80204075956560
O          -2.60181049655227    0.86876331861361   -2.01451400327224
H          -2.77671743346102    1.57388337897364   -2.64107676406041
O          -0.15517359540476    3.35794671304717   -0.18561474302550
H           0.42818301222893    2.61421564276993   -0.48901259614630
H           0.30880064658527    3.78387643354738    0.53750257339515
O          -1.93520242731145    1.61226280132771    0.31633618466980
H          -1.33983632895375    2.42878989912483    0.15333123200698
H          -2.30059318268807    1.32254131309657   -0.60744712275460
H          -1.22293270388218    0.84206043372504    0.56569795361397
O          -0.26355150693090   -0.05744211531958   -2.72050761617492
H           0.30802765320051    0.58460981643855   -2.26231949557752
H           0.04936106107707   -0.89964067433790   -2.36384097891594
H          -1.76826198910122    0.42047057098896   -2.32907923238792
O           2.51136973641395   -2.45125049137955    1.24329447932651
H           2.22208220378095   -2.46365549701370    0.31829334048250
H           2.44548146320179   -0.89461155354226    1.23244188037075
H           1.69473329842405   -2.65608372015636    1.76259847599106
N           0.03342877074860   -2.53363066719768    2.28610718278169
H          -0.16181994059367   -2.36600518113420    3.26505862734296
H          -0.60930365184818   -3.24516184198300    1.96151874329476
H          -0.17587369323720   -1.67529890307930    1.77713454347801
