    26
        -50.45841241  Gyration_radius:  2.47272539474 Dipole_moment: 4.872
 S           0.79148292161407   -0.21136900069388   -0.69693392354259
O          -0.34614515938260    0.25828094544966   -1.48834508445844
O           1.28870856109776   -1.49469177482035   -1.11999499354315
O           0.47854309005600   -0.16685539830650    0.73513373616711
O           1.90819537984274    0.87414233251610   -0.89994098691933
H           2.71993739606846    0.43744346105859   -0.50361716264690
H           0.41633558206997    1.39833324361904    1.12895719108213
O          -3.28629890576430    0.65476115875022    0.86858375472358
H          -3.39544380188501    0.93012043135575    1.78091396735553
O           0.30248954680533    2.38401007156261    1.10110055178191
H           1.05259891084508    2.70764388700574    0.59491855234188
O          -1.23626525425597   -2.44035097291496   -1.44210650045379
H          -1.52296405170882   -1.73687782448560   -2.03083833353879
H          -0.27403531880871   -2.32269687085496   -1.36762267153773
O          -1.68517245896294    2.06542833792686   -0.44851926969764
H          -2.41836322374621    1.52585413328448    0.08754358847146
H          -0.97290252530514    2.36336299402151    0.22693601790277
H          -1.16769170392959    1.32789854258853   -0.99342410911408
O          -1.84713848961863   -1.46918302468233    1.00565188638843
H          -0.96081820429002   -1.06739992513733    1.07227077292391
H          -2.80383029456369   -0.23442640017547    0.90137810648198
H          -1.81428306486828   -1.98811342222959    0.17606307351125
N           3.62926144620602   -0.70756943988201    0.23454636567008
H           3.02888725748502   -1.42385983610133   -0.16840544234749
H           3.52322402864743   -0.74298690509891    1.24025612906321
H           4.59168834637999   -0.92089876376005    0.00549481392539
