    26
        -50.45866413  Gyration_radius:  2.70508001281 Dipole_moment: 5.348
 S          -2.19784862140783   -0.54479748472437    1.38026647227640
O          -1.84079605127808    0.70452121622147    2.03668425220623
O          -1.05798198352003   -1.41359796861833    1.17360327846355
O          -2.96979520581027   -0.30683964516906    0.16850507138323
O          -3.16731836430681   -1.31746521736560    2.37280095933644
H          -3.91148226631989   -0.72684464967476    2.43144575486703
H          -2.00596292496831    0.42588503758746   -0.78578143105150
O           2.45790863344211   -1.58029116744252   -1.43935455723346
H           2.68086089413899   -2.12683764022068   -2.19375035899470
O          -1.36002947925397    0.88877260267776   -1.39955259550844
H          -1.89551167665136    1.46084829403818   -1.95178505084477
O           3.07011376443880    0.96253285211564   -1.31031942856400
H           2.86827367657060   -0.00231658388840   -1.43533350660344
H           3.85984417433679    0.99012574353597   -0.76729871138962
O           0.69201270786156    0.31011519819073    2.20820169199674
H           0.58519069227860   -0.61747196420183    1.95081552510534
H           0.84793838048475    1.10025308187113    0.90178855724788
H          -0.24828894359074    0.57735311657156    2.36306229131387
O          -0.16929250501144   -1.67330728602832   -1.32494048724609
H           1.47269808168038   -1.65071425195994   -1.34157811074053
H          -0.50536041895923   -1.74190496504999   -0.40852870050990
H          -0.57099064446468   -0.86724102841254   -1.67221613795562
N           0.84560350084879    1.66495313713749   -0.01956559195233
H           0.00004249103627    1.38678477079688   -0.56624693834087
H           1.72082509579755    1.44222328908395   -0.56706672094163
H           0.79934702269253    2.65526151286887    0.19614447377409
