    26
        -50.45866515  Gyration_radius:  2.70476296361 Dipole_moment: 5.343
 S          -1.00950642556031   -1.61217408369426   -1.84925984160289
O          -1.77012801331015   -2.09749343781296   -0.70700269984313
O           0.39044528437589   -1.40676968333386   -1.54152330839306
O          -1.64441942274634   -0.45006387212095   -2.45568476322039
O          -1.05695844948912   -2.75815938327173   -2.94760265869343
H          -1.98363667960103   -2.79605386298712   -3.16167136814684
H          -1.57148303684450    0.65792848129909   -1.38606276598023
O          -1.50143748673273    1.37178675346322   -0.68342056788680
H          -2.26320448678816    1.93844346512638   -0.81616212232437
O           2.82005622401776    1.44709118079580    0.72280725182566
H           3.41321092792136    2.14979874350110    0.45455397373789
O           1.23179095632966    1.66135482363195    2.79332928265945
H           1.68884141094580    1.19339794603707    3.49427849422259
H           1.85691624529665    1.65787957513723    2.02087310728050
O           1.23267581310558    1.11323791790886   -1.34854655693155
H           2.24976255064748    1.26381772507980   -0.06879218983254
H           1.04377448411762    0.17026517394193   -1.52924709020232
H           0.36577139896145    1.51201984371214   -1.20282100350803
O           0.12985417317362   -2.09121257976701    1.02216310144946
H          -0.34564617071038   -0.69918197588825    1.45886772580440
H          -0.67509050466152   -2.29656270317002    0.48398957217404
H           0.78975477549868   -1.94641556070598    0.32824488334711
N          -0.75713584780165    0.27395185597421    1.68592725701071
H          -1.05720920656353    0.71487856517915    0.78784010221469
H          -0.01576716999829    0.86568959002535    2.15035177484861
H          -1.56123134358189    0.16254551194411    2.29457042999665
