    26
        -50.45866513  Gyration_radius:  2.70479672868 Dipole_moment: 5.342
 S           1.90912648255351    1.51700305910697   -1.04640833245044
O           1.59637466829628    0.72230810146780   -2.22513569524645
O           1.99334879955554    0.71899139862062    0.15893303883720
O           1.01344633056691    2.65891040510045   -0.92236340644686
O           3.35884939804102    2.12294178007704   -1.27690945758459
H           3.22417269597926    2.69406058157927   -2.02637803364451
H          -0.38347287911210    2.05350586883555   -0.67989506550233
O          -0.75488521060317   -1.38756328978570    2.84082199510932
H          -1.06311842470237   -1.20143713576832    3.72851935026210
O          -1.28327120138997    1.64238885799911   -0.50773015348697
H          -1.92060372677085    2.25432735392099   -0.87965691944263
O          -2.31227853523914   -2.39778962443464    0.99418110453880
H          -1.78699763622110   -2.01162687163241    1.74415321238540
H          -2.10148991907419   -3.33308783226063    0.98940583423250
O           1.35857164145589   -1.56053159333475   -1.07097013594907
H           1.73085007619710   -1.20915419106362   -0.24889539133677
H          -0.15298665237647   -1.30556228538715   -1.00240604601646
H           1.54557309666001   -0.81990914034005   -1.70049942867498
O           0.00222714266752    0.95528276878328    1.91300886968420
H           0.83111879457346    0.90498459470699    1.39535742173778
H          -0.64580269029048    1.32449438884870    1.30022340462239
H          -0.40806766487875   -0.52476959048715    2.49346303682184
N          -1.19698733838602   -1.02622252513528   -1.00147614418745
H          -1.25578702952295    0.00061668195772   -0.81943730665562
H          -1.69909123953379   -1.55879991619298   -0.24012369618508
H          -1.59881897844209   -1.23336183518641   -1.90978203540977
