    26
        -50.45866394  Gyration_radius:  2.70497195582 Dipole_moment: 5.339
 S           0.96817692093282   -2.33356029346240   -0.79685506707639
O           0.99638063321678   -2.58292379225317    0.63697109467297
O           1.45357316870243   -1.01430296099992   -1.14497143629566
O          -0.33890479261640   -2.63571407057912   -1.36354696861991
O           1.98050375400863   -3.36405131364667   -1.45661211198153
H           1.58633994006400   -4.20335337123590   -1.24176178299733
H          -1.29949236370202   -1.60952622765324   -0.72997941762041
O          -1.90800790543188   -0.92509146774346   -0.31838121035531
H          -2.76573686803465   -1.34867060705388   -0.25600739347625
O           0.05965375962149    3.13195787057524   -0.91331647763670
H          -0.27871463010703    3.74496519151863   -1.56706517984822
O          -0.91093294111546    2.98625805864969    1.51391063539552
H          -0.60047841034767    3.09588039031871    0.57632758483947
H          -0.28861237178404    3.48213915442047    2.04877917057954
O          -0.35344778806212    0.75981231748706   -1.97382577370981
H          -1.12373362919389    0.32523398288365   -1.58727507189725
H          -0.03082194135922    2.23136279770945   -1.32069327529470
H           0.38703487395922    0.14117505176376   -1.81104449405355
O           1.86876469301528   -0.28439998118693    1.38248488040429
H           2.07678747925516   -0.04919579144362    0.46611435750891
H           0.41170670437963    0.14119234128563    1.60585680254641
H           1.67022490987509   -1.24984693191778    1.29277546413728
N          -0.64369595107574    0.34217032931756    1.72322322024346
H          -1.15235790743136   -0.14146549763771    0.94955248783839
H          -0.80773027323600    1.38423070036515    1.66918199828546
H          -0.95647906354384   -0.02427587944132    2.61615795438512
