    26
        -50.45866448  Gyration_radius:  2.7047276487 Dipole_moment: 5.340
 S          -1.80747681153732    1.90121629856711   -0.36527342039595
O          -1.98263753770229    0.64674289716172    0.33649846873900
O          -1.41903370215094    1.71783478656937   -1.75607034261632
O          -0.91422085688256    2.82607608076185    0.31859048990661
O          -3.23324815109989    2.60091231725854   -0.38036470224135
H          -3.04598905611074    3.43653726553145   -0.79604755297589
H           0.45576304080018    2.11936478152932    0.33908926994099
O           0.54171069095262   -2.53520684766137    1.98053432358441
H           0.80036208417401   -2.76734057013509    2.87322003667668
O           1.33661445873946    1.63770333891540    0.35652204937188
H           2.00516410354511    2.32419896262314    0.32941712736291
O           2.18779958113572   -2.69334647032262   -0.04974081142144
H           1.95324200397094   -3.51624090663100   -0.48230010907862
H           1.62530498722173   -2.65458017875982    0.76847712910070
O          -0.12884798290002    0.00430468527151    2.13968433040634
H           0.22626877095229   -1.59543387989079    2.03071783227291
H           0.56646157815996    0.57924519859545    1.79672802392271
H          -0.91648549255118    0.22011653881735    1.60075849068552
O          -1.29398033110150   -0.84820358765713   -1.75828292421671
H          -1.72136297527070   -0.88650163218611   -0.88984137276316
H          -1.42321819672403    0.10414081271975   -1.99472549394208
H           0.21053432959694   -0.72203484551120   -1.48339601795110
N           1.25413820422116   -0.52337273516617   -1.28514583639329
H           1.31059226568788    0.31017430350320   -0.65804695582610
H           1.72791212919806   -0.32278490230810   -2.15964229510597
H           1.68463285566339   -1.36352173157658   -0.81135974703159
