    26
        -50.44284457  Gyration_radius:  2.50157587082 Dipole_moment: 7.675
 S          -0.44351807920135   -1.26956941272421   -0.52131485898790
O           0.68677061775568   -1.21735524555975    0.37173051051831
O          -0.35658464415964   -0.28906466384732   -1.60620747573932
O          -1.70212140525486   -1.08511831383276    0.22397621619790
O          -0.50849828298609   -2.65429460665540   -1.21439526491935
H          -0.77214861861069   -3.26068840759618   -0.49227502459728
H          -1.78077150456725    0.34363791233108    0.84394893366140
O           1.73836904476669    2.52303762141339    0.01731722642682
H           1.97788796671841    3.37702868569816    0.38090367176551
O          -1.77642425579602    1.30070614703827    1.14363371727017
H          -2.69154775062534    1.52827870444697    1.31977019293898
O          -1.66930806877204   -3.62470822732967    0.93696564512985
H          -2.52062710812465   -4.04925737490495    0.80709807730263
H          -1.82910440740793   -2.66180045717360    0.93766078677715
O           0.97256245764548    0.91610086586237    1.89713601575034
H           1.60070229914489    1.89900070487741    0.79088221154918
H           0.03940119764183    1.09926133949394    2.05466088475239
H           0.99190148401370    0.04869143628285    1.43606261222304
O          -0.53816399073520    2.07571311455181   -0.97179330958573
H          -0.44856035823964    1.06593798496154   -1.35055297655461
H          -1.08115707348498    1.93354493126346   -0.12753432018474
H           0.42019843831405    2.33436391073485   -0.66152372188116
N           2.68310828816632   -0.16943782449578   -1.64485611017088
H           2.32878981679210   -0.73314436734856   -0.87926684426396
H           1.98186358525922   -0.22087453876598   -2.37497760516312
H           2.69698036175694    0.79001007127434   -1.31704919021294
