    26
        -50.45582949  Gyration_radius:  2.5407180867 Dipole_moment: 3.456
 S          -0.82571196956532   -0.05183675496957   -0.41334494806830
O          -1.41883954595967   -0.91868592475135    0.58131226662395
O           0.61683224972254   -0.36733248471522   -0.58719092856949
O          -0.98090447512811    1.36824413276647   -0.10411660191370
O          -1.49183495707768   -0.27402353170479   -1.77584882749823
H          -1.48355225959306   -1.30632172823159   -1.97570012615646
H          -0.04390718967703    2.62382093981880   -0.51406064861478
O           0.71776843644477    3.21509831694849   -0.74589761998626
H           0.64831728586273    3.38444855350739   -1.68700474174858
O           1.77729923086314    1.38714077560900    2.58977963313872
H           1.85221619475120    2.24727187310450    3.00753366428771
O           0.14399650209227   -3.02295892964589    0.12356163791897
H          -0.49773668040742   -2.38133398225520    0.48420794650241
H           0.90024797591482   -2.47654561181600   -0.11313598318130
O           2.23510266133201    1.33814132681370    0.08860362763604
H           1.55382535175944    0.53758829509638   -0.23484218519884
H           1.77632659885206    2.17949094005025   -0.25610068088398
H           2.14142338110809    1.35148855890622    1.11462649989457
O          -0.78872603600670    0.90701193524072    2.49424261533169
H          -1.06451407852883   -0.00811639660897    2.35411654740919
H           0.81254497273696    1.13849127306395    2.64130850661252
H          -0.99131686771356    1.31888225648736    1.63368270493627
N          -1.41991591429233   -2.78840639966608   -2.17594090860388
H          -0.82456966579048   -3.10375651010378   -1.39994302231050
H          -1.01249301660367   -3.08433409840882   -3.05258039858557
H          -2.33187818524942   -3.21346683441864   -2.07726804919373
