    26
        -50.47250266  Gyration_radius:  2.48700742357 Dipole_moment: 2.877
 S          -0.92268953441966   -1.69036322023988   -1.19718477723662
O           0.46248439103095   -2.11933684434518   -1.34642768892742
O          -1.05962840837544   -0.25091706641724   -1.31074916777655
O          -1.53656538335909   -2.23751552789453   -0.00238840215179
O          -1.71827548278509   -2.30609745996338   -2.42113143301696
H          -1.72498390798296   -3.22860329948249   -2.18985777671801
H          -0.98484828283198   -1.55732004506356    1.32887529623430
O          -0.67747682455698   -1.07945266294720    2.14335044203094
H          -0.79340424532307   -1.69423075629380    2.86928288108601
O           0.14271024189070    2.62411095002747    0.82806062779364
H          -0.07704688805912    3.49175017907434    1.16778524034756
O           0.66155058365594    1.78284323715554   -1.74489247820478
H          -0.08740293683373    1.16145687706088   -1.80632405225772
H           0.50891217014146    2.27485489048172   -0.91740458757022
O          -1.93065891877181    1.04762957232787    0.85530482902710
H          -1.70735834304809    0.38760062738311    1.52788016025009
H          -0.70271237617212    2.08819388440378    0.85177896040589
H          -1.78401931047755    0.58737215602804    0.00451851282119
O           1.55715122906192    0.43795646345964    1.72543544195833
H           2.01939844377793   -0.00328412665549    0.26306557053682
H           1.16066045405500    1.30926931914934    1.54437153045751
H           0.80795238900675   -0.14173346663369    1.96023546758752
N           2.11370662490018   -0.18335708819955   -0.77969630253330
H           3.07750783100500   -0.34162454952442   -1.04962626907836
H           1.68881090158915    0.65776407470330   -1.27514293961404
H           1.50622558288552   -1.01696610758926   -1.02911908545606
