    26
        -50.45582898  Gyration_radius:  2.54039471269 Dipole_moment: 3.469
 S           0.05244534586529   -0.29198347031949   -0.87679406149200
O           0.38814218318359   -0.66631344828332    0.52264077723702
O           0.88544983687627    0.80356035081605   -1.32293707407525
O          -1.37701913495690   -0.00439039069142   -0.97553189369909
O           0.30558373936552   -1.53474445911906   -1.73729133664821
H           1.34311062235083   -1.70517152072001   -1.76297986364997
H          -2.61071715091728   -0.57440764759223   -0.09411030949603
O          -1.42875881226282    2.27404487233333    2.13328608598680
H          -2.29758816494128    2.65406200523662    2.27698347223305
O          -3.18734570672705   -0.92536303691168    0.63233221549995
H          -3.33641715318438   -1.85110304702070    0.43230205666295
O           3.01819859492882    0.18302939720728    0.14254708011872
H           2.36023279536213    0.61461603341586   -0.43560070235525
H           2.48657142725221   -0.17664733126764    0.85984008430171
O          -0.98480448975155    2.55464063314222   -0.42559961538145
H          -0.06945748175703    2.47198548072724   -0.72403243555006
H          -1.38161203904946    1.72255882140168   -0.74350293480529
H          -1.19649128990392    2.46801509856638    1.18259361078311
O          -1.31144262427217   -0.26465849699877    2.23507907488842
H          -0.51185864114093   -0.46979487673375    1.50687208369865
H          -1.35099630260551    0.76351230384742    2.28631477828609
H          -2.15005456463210   -0.56319311529776    1.74095359551191
N           2.82967740513088   -1.87312908613248   -1.73494103133572
H           3.13036392305881   -1.18116903742066   -1.03711479993923
H           3.24589398596926   -1.63711326783250   -2.62546627933009
H           3.14889367667280   -2.79084277437190   -1.45584256746582
