    26
        -50.46742634  Gyration_radius:  2.4023222884 Dipole_moment: 4.783
 S          -1.08457455573424   -1.16056695599226   -0.66646141188294
O           0.36772338483225   -1.45936108484391   -0.13124366365350
O          -1.14438887453971    0.27790642731449   -0.92520228858214
O          -2.03754760197986   -1.57334302484660    0.33472379061923
O          -1.11566609823118   -1.92215267209541   -1.91272304058887
H           0.20944708669340   -1.66333516555236   -2.40819396171876
H          -2.01914411337167   -0.62323180053832    1.63424703416407
O          -1.89308349688320   -0.06389661808451    2.44555550342584
H          -2.46301932059217   -0.44569130791665    3.11484656816650
O           1.46014486522256    1.90607918817524    0.93295479338460
H           1.89055033104882    2.71083446630281    1.22346938338578
O           1.20981105585285    1.03110466691058   -1.70454281996073
H           1.58213081681326    1.27790229184324   -0.84089949002765
H           0.25115635448229    0.89458318251739   -1.50661821023975
O          -1.14755332532474    2.15566166164491    0.95290436372921
H          -1.29095565420382    1.58831701971753    0.16844445770223
H          -1.51917909037178    1.63793968394048    1.68125677155760
H           0.47984325724835    2.09937732470597    0.92938852390895
O           0.78141681458093   -0.43583394675750    2.18028310746725
H          -0.13331695618530   -0.24650610021209    2.46559021037479
H           0.51568754222170   -1.11807612968769    0.80731723350749
H           1.15997020848178    0.40746094499615    1.87161846713254
N           1.25875328529420   -1.39828084209910   -2.63962488343933
H           1.85117252985582   -2.02144625978708   -2.09826022335757
H           1.37619971289975   -0.38827428500839   -2.27543926795706
H           1.45442184197957   -1.46717069441502   -3.63339092702630
