    26
        -50.45538182  Gyration_radius:  2.56575911669 Dipole_moment: 4.089
 S           0.74780912882972    0.32118816873364    0.66237292206132
O           1.16065770705340    1.32290523261139   -0.31774954818731
O          -0.67359589965276   -0.03129432116054    0.42247733010062
O           1.57558649134957   -0.85988038848155    0.67374939062339
O           0.79829775818671    1.01009751853400    2.04366648344280
O          -0.53069737725465   -0.47533974637263   -3.32850899533455
H          -0.31159667677927    0.00144568690427   -4.13165028898573
O          -0.44153407482854    2.99714870220044   -1.46610228516582
H           0.28221810547026    2.46790686223055   -1.03988290107636
H          -0.68188791340981    3.67814628057581   -0.83518936608103
O          -1.79874061004817    0.84930664692845   -1.57710543341135
H          -1.38035456510158    1.78238251793371   -1.62283794362412
H          -1.36770628882853    0.29320580957623   -2.33588990563070
H          -1.36809112090132    0.43776713612681   -0.67817067732587
O           1.72879415096488   -0.61965043045155   -2.02542209452286
H           1.72013590276856    0.25262407897729   -1.59194081217391
H           1.81396225856268   -1.22037544828326   -1.27290530922414
H           0.33500999868346   -0.64630976845018   -2.86383764444531
O           1.22536435452537   -1.14525476196538    3.32385734128977
H           1.67246679433406   -1.42044261594359    2.50913717952935
H           0.97304536228974    0.25950790120765    2.69927184931444
H           0.31773743977706   -1.53220288661404    3.25307643886469
N          -1.22949469868694   -1.91661448567763    2.54105019436159
H          -1.13702289699839   -1.29143494286523    1.74091905111615
H          -2.07464539096514   -1.66013762836792    3.03548360203714
H          -1.35571793928068   -2.85469510789712    2.18213141246375
