    26
        -50.45582944  Gyration_radius:  2.54081634461 Dipole_moment: 3.454
 S          -0.31574529788076    0.41548481530158   -0.75999496763304
O          -1.31370510117430   -0.58888710404653   -1.05637627769939
O           0.89115038163717   -0.20973476743237   -0.15730223392745
O          -0.80844960099392    1.47335776811290    0.12003281392020
O           0.14340274065212    1.10414197235905   -2.05013119557028
H           0.40588952362434    0.35615244416072   -2.74094458301163
H           0.00448323508028    2.40452392178382    1.16624044581369
O           0.64711819094613    2.76112551042565    1.83214096146478
H           1.21285720187500    3.37237970194273    1.35724984148705
O          -0.62132211086455   -0.67522571515160    3.31093042925654
H          -0.95199811859471   -0.19537681251779    4.07278329432477
O           0.38923724846044   -2.57304520948449   -1.55093092995800
H           1.03467755105149   -2.24787215804252   -0.91515097648512
H          -0.39955893542556   -2.02440327925009   -1.37701471129745
O           1.40796023786651    0.34671100745752    2.16812011268012
H           0.64451213713947   -0.10747439285016    2.69014663994127
H           1.22634878955827    0.06319997593121    1.12118059057084
H           1.20797773619466    1.34533019001984    2.16990523006730
O          -2.36803982477567   -0.22169389506837    1.42200979535854
H          -1.98479708278305    0.59545711881442    1.05237985948385
H          -2.36201708865759   -0.81468639240938    0.65937639210005
H          -1.32872437331290   -0.60310880789392    2.61120947890562
N           0.76225011297068   -0.77581044177196   -3.65324937395844
H           0.71455911956556   -1.59668824690630   -3.03688706668707
H           1.68353256758412   -0.71950775781355   -4.06578152734110
H           0.07840074029549   -0.88434942531891   -4.38994204186318
