    26
        -50.46742645  Gyration_radius:  2.40217355745 Dipole_moment: 4.785
 S          -1.41423582761563   -0.10816180356450   -0.97644175117026
O          -0.78899486195367   -1.27848002010567   -0.12539709299464
O          -0.35580368028880    0.88526528486012   -1.15744167621673
O          -2.54642831873956    0.42713192799937   -0.26029373305136
O          -1.72974353389782   -0.77802573237014   -2.23574775849534
H          -0.57034781086805   -1.61719648502725   -2.38094234066750
H          -2.11537756610453    1.24068262986271    1.06009613388360
O           2.14695220004571    0.38550681246575    1.36813405913085
H           2.95587015193373    0.66870344117216    1.79566546569063
O          -1.79541180246124    1.64379948758760    1.90993243628494
H          -2.58534776064471    1.88212190680856    2.39750975431082
O           1.89553754072555   -0.39093422664731   -1.29913085127638
H           1.12730476694649    0.22906058067637   -1.34756103936278
H           2.13798413991485   -0.37084890737007   -0.35761988126768
O           0.61475779241438    2.42605110984418    0.77562314900693
H          -0.15607544049284    2.43643429586472    1.36071037630662
H           1.64509260522600    1.21916033461541    1.14104287481617
H           0.27191935542331    2.03437595794959   -0.05318145555618
O          -0.25833967001779   -0.56167069847025    2.27621153582270
H          -0.77933090119656    0.26178321791581    2.34333985129230
H          -0.64104359205323   -1.02370586403821    0.84016879279633
H           0.66645009985894   -0.29765869267498    2.11965681877582
N           0.35786399973407   -2.21789373287647   -2.33655117605684
H           0.18209697766162   -2.99462669203910   -1.70555556285712
H           1.09270065461830   -1.56012224294535   -1.89609199441108
H           0.64195049184261   -2.54075189949146   -3.25613494471640
