    26
        -50.46742659  Gyration_radius:  2.4021097439 Dipole_moment: 4.783
 S           0.51793781658339    1.61513358133627    0.29520110838266
O           1.08161271668849    0.32182081533485    0.99849405476209
O          -0.78612891976435    1.25186483338622   -0.25908977993091
O           1.44888879726678    2.02493864033275   -0.72777908150562
O           0.37488848327348    2.53833504670726    1.41825313605212
H          -0.12703902124428    1.64403443883898    2.42703408034995
H           1.47718136828418    1.01538423758936   -1.98108419902427
O          -0.94983334861996   -2.32116404567397   -0.58114587713148
H          -1.41899023811657   -3.10263028134207   -0.87512968542675
O           1.52190534460642    0.30747950633638   -2.67678861104512
H           2.22820357249228    0.57015456911629   -3.26900758263985
O          -1.84700141300450   -0.49879869072436    1.33035856482664
H          -1.51939009966345   -1.30801328126897    0.90207209637653
H          -1.62275132076437    0.20884621045940    0.67776913012947
O          -1.14572020629066   -0.37697000117753   -2.32585307002606
H          -0.29446496200363   -0.24859067997864   -2.76802094134871
H          -1.10887383798376   -1.62222120255126   -1.27732089044328
H          -1.16857093523788    0.33515441727397   -1.65491313105701
O           1.66900238648075   -1.52269964623787   -0.67941378680176
H           1.68681230124203   -1.01563563499932   -1.51404094391706
H           1.37968040141973   -0.38293393491081    0.33994304321875
H           0.81233709132297   -1.98610310384607   -0.64996745471218
N          -0.47603891558760    0.83485371207568    3.09628016587035
H          -1.02173277429130    1.19692684207357    3.87200790275416
H           0.34847169218877    0.33694219144124    3.41975686486797
H          -1.06038595947736    0.18389144017989    2.46238486745677
