    26
        -50.47250316  Gyration_radius:  2.4871871564 Dipole_moment: 2.883
 S           1.31374397106952   -1.46050592320280   -1.13317564193108
O           0.08561616081561   -2.24026914084365   -1.22791225030182
O           1.46814826653787   -0.84829028515838    0.17257543374314
O           1.44886534228715   -0.52263055271513   -2.23121922699493
O           2.50997010094023   -2.48841709057855   -1.28176032570928
H           2.42852737507297   -2.73211943032524   -2.19741990296846
H           0.44602274856867    0.70995935109214   -2.11214640835999
O          -0.14015441995934    1.50210112722526   -1.98913877826311
H          -0.28685255564418    1.86015978525577   -2.86584788737623
O          -0.46340463580475    1.83989799728592    1.99753144147401
H          -0.39129889304024    2.58939119594133    2.58876595731483
O           0.00351652327770   -0.83976161332484    2.44002544067992
H          -0.16232935596786    0.11916785563168    2.49631221846052
H           0.72975211878792   -0.92895563090031    1.79544470128214
O           1.47407967051556    1.82203372464146    0.25670980714403
H           1.02746704938539    2.00153474072188   -0.58367950920542
H           0.32078628167648    1.89205841160149    1.37716940795585
H           1.65317656894181    0.86043881837758    0.23673642317825
O          -2.08389971910369    1.11194349844484   -0.10755751496133
H          -1.97408714576752   -0.44970189041089    0.20327019435342
H          -1.65872181134762    1.49289475834993    0.68187518415220
H          -1.46660697069213    1.28848283591404   -0.84254238958844
N          -1.67946839567200   -1.42379201095632    0.50814045643449
H          -1.11196509455716   -1.30640475716033    1.40133756373291
H          -1.01415701887651   -1.81347397102109   -0.22098156212697
H          -2.47672616144443   -2.03574179388774    0.63748717788213
