    26
        -50.45538171  Gyration_radius:  2.5658155277 Dipole_moment: 4.092
 S           0.01433582904174    0.34820471309653    0.98959365290752
O          -0.34918321940242   -0.86979561102057    1.67143568040540
O           0.97362115849587    1.17673785064542    1.87194835702753
O           0.74998067589118    0.05299569869873   -0.26496194814273
O          -1.12103553776757    1.21459828068510    0.68174620206361
O          -2.19963640283504   -0.79906093741556   -2.47004360651254
H          -3.01580531639429   -0.42536608024751   -2.80865364536363
O          -1.22293083046480    2.84318984453292   -1.32493466714390
H          -0.66552338636729    3.60071047733622   -1.13768829890664
H          -1.27613013117135    2.32323148326371   -0.48095841860581
O          -0.21290154294341    0.77549213846511   -2.40770128776540
H          -1.00250453743127    0.11752582284225   -2.52772361273964
H          -0.61867553675990    1.67315496098187   -2.12966126930455
H           0.26836999935550    0.43950108942685   -1.50309353301288
O          -2.56976697797849   -0.92788473523006    0.11264264799475
H          -1.96651732568599   -1.44824499606300    0.66017581109504
H          -2.33077312387555   -0.01506640874476    0.35453394537381
H          -2.35467800549738   -0.96662620328978   -1.49910516152666
O           1.95914181867988   -0.85064264208976    3.04918098621524
H           1.46371479660580    0.49164700516766    2.43241133803933
H           1.08235796548033   -1.23576222169385    2.89943950878842
H           2.51180450860584   -1.19136656554498    2.30280130369512
N           2.96203111561229   -1.56238164092227    0.65712971268379
H           3.83905370491207   -1.20833789109911    0.29644947825784
H           2.20996045707195   -1.03165187213230    0.21855210999530
H           2.87168984481836   -2.52480155968809    0.35648473447598
