    26
        -50.45538181  Gyration_radius:  2.56582110362 Dipole_moment: 4.085
 S           1.04038260882999    0.11285759792847   -0.06873928208335
O          -0.12641486614048   -0.70856143883904    0.33883789538067
O           1.21652466754364    1.23350653238274    0.82198687101014
O           2.27302703910272   -0.81470926581740    0.00547090634094
O           0.88812117377212    0.49109264499507   -1.47168433055180
O          -2.87609567973758    1.42464298046899   -1.13620915518833
H          -3.17527836584717    1.78660516858949   -1.97280204312263
O          -0.44389787227555   -0.87135040441511   -3.22066406664274
H           0.06366789899685   -1.64927650517309   -3.45902396292142
H           0.15867007964498   -0.30533935097273   -2.67111615458192
O          -2.01066393024492   -0.95738216099880   -1.21928863464123
H          -1.50469909436029   -1.00493216411101   -2.10786688764130
H          -1.21528044229021   -0.89652925194765   -0.49375300866401
H          -2.45432952043517   -0.02326796529510   -1.18004584630278
O          -0.56651537015931    2.57395830791782   -0.72484110421237
H          -2.05070850304967    1.93027643854653   -0.89587529533073
H          -0.14863413528653    2.52171956011829    0.14523400645916
H           0.00037814393603    1.99025376233637   -1.26041971396137
O           2.82669278230619   -0.21552595169434    2.41420948900774
H           2.63344093281476   -0.68903946414587    0.94245186184006
H           2.43688204970060    0.64133815029551    2.18332516623484
H           2.09314889735572   -0.71256685762810    2.85402215452171
N           0.49704956178188   -1.38416017198895    3.07870826788570
H           0.16253980595875   -1.18234552484740    2.13690526707881
H          -0.11830251880956   -0.91130943193916    3.72876144274346
H           0.40029466690483   -2.37995521374516    3.23241615733491
