    26
        -50.44393138  Gyration_radius:  2.57592242404 Dipole_moment: 4.509
 S          -2.50216093893988    0.50086610900723    0.75214629410289
O          -2.23128181458663    1.78917740062765    0.08703047921413
O          -1.35458007118789    0.05035798221754    1.49160927448903
O          -3.02134800308776   -0.47605079309256   -0.18955537350699
O          -3.65934648072681    0.79020357313822    1.78959697395129
H          -4.41888003615043    0.95650403877598    1.23856950499818
H          -1.76256223212159   -0.82187133040575   -1.06549680909703
O          -0.94266932536818   -0.86692546023248   -1.63465281625966
H          -1.25303633349924   -0.94156677852577   -2.53953467686968
O           1.39572817587835    1.15278658778003    1.28116731062798
H           0.86401852097154    1.60540622973942    1.94053634523704
O           1.31196110072879   -2.17550417373279   -0.59541357465018
H           0.46080320700587   -1.94242102463001   -0.98830318794706
H           1.93403731034084   -1.47210629637808   -0.87468685123425
O           0.97277529168938   -1.28365630375467    1.89049202484370
H           1.12853374541816   -1.77923402479377    1.05123686465059
H           1.32683968713709    0.16297436932174    1.54440869554867
H           0.02050458553596   -1.10582753344634    1.92504580901323
O           0.02590248848912    1.38821754955592   -0.79870630374260
H          -0.16502782341376    0.47661330494203   -1.17814658200342
H          -0.93587406692814    1.68245109358310   -0.42825855247070
H           0.64354695470294    1.26949391922902    0.07186376898729
N           2.87222015381289    0.04276415503227   -1.18721033749510
H           2.58661656771074    0.70808362809873   -1.89505724803828
H           3.82286273482524   -0.23832869179133   -1.39180046403887
H           2.88041660171882    0.52759245982189   -0.29688054833303
