    26
        -50.44393146  Gyration_radius:  2.57603399511 Dipole_moment: 4.507
 S          -2.08876363330743    1.08783026960281   -1.23777227862017
O          -1.34900536623729    2.33358645717012   -0.96099181400105
O          -2.00394429299413    0.17967394658102   -0.12660915066958
O          -1.68505238919989    0.50966024785757   -2.50798535899859
O          -3.60261225385628    1.51526777716636   -1.39526944834773
H          -3.61486290472817    2.00186260744468   -2.21456262680363
H          -0.24092829930323   -0.03182282695200   -2.20400174103912
O          -0.13844780525196    0.41277718917215    2.17481716955159
H          -0.96766801677483    0.87420496932897    2.32263160699093
O           0.70512079501596   -0.21647744641985   -1.94105591993327
H           1.23732297298996   -0.02242232552276   -2.71552265509912
O           1.18527365213699   -2.31951989069304   -0.14609655742980
H           0.99479322947350   -1.76897734233689   -0.91669996333608
H           1.80827209803488   -1.79982197897939    0.40303010336468
O          -0.96891391778838   -1.84801099246097    1.34659560888338
H          -0.22404307577327   -2.20153888749014    0.80407205332176
H          -0.42644238989672   -0.53984768570085    1.92326999159063
H          -1.56331950507836   -1.39845728241025    0.72671597275246
O           0.70269011164266    1.43924850015800    0.05421961785081
H          -0.16170488630779    1.93673038168002   -0.33866136510093
H           0.37658584194453    0.97733669545377    0.96723085310951
H           0.85763515476053    0.71682529146635   -0.62811041617783
N           2.67814785987411   -0.61221836346788    1.45448257406872
H           1.99095769226869   -0.32762840283383    2.14338367645102
H           3.09579770584362    0.22808093858284    1.07398808974786
H           3.40311163254273   -1.12634184641677    1.93890202789900
