    26
        -50.44393145  Gyration_radius:  2.5760002555 Dipole_moment: 4.505
 S          -2.23722730205143    1.43559127410402    0.10903281619346
O          -1.28013987164017    2.55766618303908    0.08638790206038
O          -1.75174933720598    0.35990041457903    0.92982875630867
O          -2.60617764110483    1.03385444401960   -1.23754161981861
O          -3.54745822658117    2.00431383802924    0.78662215681903
H          -3.89167800488158    2.61051399996395    0.13687213665417
H          -1.30078110109183    0.33438064513480   -1.76448341835083
O          -0.38848215814065    0.03350809472133   -2.03912284700701
H          -0.28587247605093    0.30247456888746   -2.95444480956334
O           1.02036027980059    0.07641170928941    1.96916045248422
H           0.45408678259058    0.57524029332660    2.56314479609415
O           0.59399132211152   -2.35747375253239   -0.94632484932844
H           1.47693401492192   -1.98279322094843   -0.74686023775247
H           0.13198236216972   -1.67955134360701   -1.45636424646422
O           0.84419163689542    1.35039095524243   -0.17667425638267
H           0.94765802365344    0.77951600803178    0.72684838399738
H           0.53102335866376    0.73356565494921   -0.90670007398144
H          -0.01566087362240    1.97235217269942   -0.02464628797135
O          -0.44028226215869   -1.95014862141647    1.47348149600822
H          -0.12410399115045   -2.27442751445973    0.59654648295862
H           0.50580204788770   -0.79788547604822    1.81198910281232
H          -1.18821587017265   -1.36181104355717    1.28873255075597
N           2.91961512730490   -1.04892952397102   -0.18196998291281
H           3.70344879350247   -1.68929682789870   -0.18697719522095
H           2.71512063645293   -0.82160708547816    0.78461097286632
H           3.21361475982878   -0.19575584613249   -0.64114818140957
