    26
        -50.47398687  Gyration_radius:  2.4377145551 Dipole_moment: 2.211
 S          -0.44554324096397    0.74317521919480   -1.71787712147310
O          -1.48774050012101    0.01742404728608   -0.99339679831362
O           0.84715834494415    0.11389875564734   -1.53137672727918
O          -0.46650583886939    2.16114575236490   -1.44396554196916
O          -0.79048094518809    0.59328936516161   -3.25482153436146
H          -1.36278121344938    1.34273549599220   -3.37262441958577
H           0.06781614757891    2.58381290343287    0.04626365233893
O           0.33768641058993    2.74412816255913    0.98118096354146
H           0.41395186796234    3.69413467881958    1.08088176956520
O          -0.02852213132956   -1.06462974756466    2.34359906030229
H          -0.40703896898588   -1.86170285122193    1.12585246840316
O           1.70433032024201   -2.36909452401445   -1.15971193907986
H           1.48390156498766   -1.47979280555716   -1.50521187348624
H           2.45492653171417   -2.23574484907926   -0.57541688781516
O           1.78342589272555    0.36629478764523    0.99523816367589
H           0.78032246444066   -0.60856578802652    2.01633655399575
H           1.54143767176525    0.26807782956301    0.05691195298289
H           1.50610074565502    1.26654530582252    1.21882922368086
O          -1.65552367745209    0.90385017582408    1.59887073115823
H          -0.72194918641008   -0.36449738350361    2.30559215160867
H          -1.04668075512142    1.65879969825398    1.58814316955651
H          -1.76348422885205    0.64954038232791    0.66723008234925
N          -0.64419006854407   -2.22873410308180    0.12503244761596
H           0.25036192240351   -2.48390586386600   -0.35800757890733
H          -1.05483335478468   -1.40594055673515   -0.38597238220229
H          -1.29614577489418   -3.00424410722648    0.14842041375118
