    26
        -50.45038868  Gyration_radius:  2.64292373411 Dipole_moment: 6.840
 S          -0.02206906349267    0.60866490189718   -1.51335286939831
O           1.14792131233428    1.05584889265626   -0.83137577862519
O          -1.29155275739170    0.97026973185070   -0.72457845894820
O          -0.05386461318209   -0.81438310352433   -1.79219338709144
O          -0.21270452118730    1.38878224819106   -2.81704876287386
H          -1.03611455991148    0.94881641660503   -3.23669880992381
H           0.42428383271191   -1.66934238405078   -0.45654136828969
O           0.53599388813268   -2.12625959971693    0.40768185743512
H           0.58689093728855   -3.06459689763157    0.21577779463221
O           0.13954430436377    1.06153242655391    3.04369299596975
H          -0.25133852636189    1.88277418370869    3.34297567855485
O           2.36800339651815   -1.09072777276133    2.26343450390777
H           1.77002780977126   -0.89356684187421    2.98962685568728
H           1.81984360324727   -1.47058499573146    1.55945303680173
O           2.26508824008988    1.56267206839095    1.60206708574876
H           2.65637468196383    0.68507331140718    1.76533379851638
H           1.95751380510031    1.53357093658160    0.68259637550794
H           0.95344808211394    1.31767331540752    2.52206632391922
O          -1.31438116060943   -0.36644128189003    1.38416822710290
H          -0.82251944151742    0.17379599391533    2.05887858261513
H          -1.35045380008624    0.43193387288933    0.17917417032833
H          -0.72958147092555   -1.11596015848502    1.17291811185337
N          -2.22506819353791   -0.05342565738263   -3.47701371782250
H          -3.03316075247621    0.21057459922783   -2.92921550933599
H          -1.75557575990511   -0.82523270136636   -3.01345285812721
H          -2.52654929305205   -0.34146149486825   -4.39837386815299
