    26
        -50.45038863  Gyration_radius:  2.64285285084 Dipole_moment: 6.840
 S          -1.20450948349832   -0.37716028998241   -1.03399838450465
O          -1.28426348901763    1.08315921233660   -0.55859776890229
O          -1.22159944378666   -1.27627838953900    0.07291875504320
O          -0.04966219972699   -0.50682121299550   -1.90189264181024
O          -2.48450616221680   -0.52291040785621   -1.86165295875948
H          -2.33373660286528    0.12021644384029   -2.64361427561992
H           1.33359986297708   -0.63207836728145   -0.99905200505610
O           2.12717870021026   -0.51816910546766   -0.42867376571395
H           2.89016956870677   -0.67475265029120   -0.98830313255531
O           0.37806703437269    0.79722634720542    3.10309593787512
H          -0.25798147499612    1.30379550705039    3.60866426275855
O           2.13978368446621   -1.68138866525616    2.12458803492871
H           2.13426784102487   -1.38024852777114    1.20286968056374
H           2.23282122085434   -0.89051144980503    2.66277045387755
O          -0.53720386392454   -1.61870571870996    2.68839926842721
H          -0.93291761287434   -1.58919101572107    1.80326783873657
H           0.35113908333887   -1.99697992827113    2.55530475897861
H          -0.01699725968011   -0.11547483391856    2.99810771782340
O           0.82934173624552    1.63190497738080    0.65224325958535
H          -0.41313640485718    1.36718795732237   -0.03857334472586
H           0.67436821885868    1.38541487146157    1.60317169324270
H           1.45529251189075    0.96931755380847    0.30937989677609
N          -1.62860129742403    1.13225025039637   -3.62021569341730
H          -0.69881490483790    0.77185088683151   -3.42901279902496
H          -1.68990518040405    2.07642923265950   -3.26304447148451
H          -1.79219408282324    1.14191729257416   -4.61815033704139
