    26
        -50.45038873  Gyration_radius:  2.64316419938 Dipole_moment: 6.841
 S          -1.14606389675589   -0.95994587678559   -0.65116395508668
O          -1.32858789106549    0.51321404302025   -1.05273256275904
O          -1.14253276501584   -1.10602226761403    0.76749554295090
O           0.04052122306558   -1.46493538341424   -1.31514412919345
O          -2.38882394455037   -1.62083159431883   -1.25401467507868
H          -2.25341566923744   -1.50273293811132   -2.26174910905867
H           1.39945573500243   -0.98270134621016   -0.49977016386558
O           2.16632084564434   -0.52232112827758   -0.08976886352555
H           2.95474347906625   -0.90631931755557   -0.47817249142634
O           0.23065269996269    2.38737576505313    2.15908294912106
H          -0.45098916200681    3.04263634382073    2.31000145215951
O           2.17119420916941   -0.09727873853120    2.68343386242598
H           2.19978809235222    0.86331376990812    2.70053888807952
H           2.17549875520922   -0.34983855104539    1.74720614842087
O          -0.52076408781000    0.08116856072031    3.14040575012805
H          -0.88965141808613   -0.40413477637481    2.38586648361530
H           0.39289897163896   -0.24653129848532    3.22914780745868
H          -0.10391225962770    1.54098132196266    2.57350457437913
O           0.70840104952914    1.77581494235267   -0.35207353226994
H          -0.49347370068461    1.09370133619900   -0.77801295072496
H           0.53847603058328    2.07896698439618    0.57963004206809
H           1.38343295694974    1.07752358515371   -0.28065150891419
N          -1.58113295661775   -1.14651348025752   -3.63894911948833
H          -1.71289614394070   -1.69864703621146   -4.47594586416943
H          -0.63757827646283   -1.27747744100613   -3.28742074545082
H          -1.71156186630182   -0.16846546839573   -3.86074382979797
