    26
        -50.45038888  Gyration_radius:  2.64344921112 Dipole_moment: 6.840
 S          -0.81662252219918    1.36579146263731    0.35074134769659
O          -0.27481598352425    1.37258265751001   -1.08830550088818
O           0.23713138444493    1.17454826242723    1.29251798830088
O          -1.88254943111475    0.38505963211861    0.42723969926228
O          -1.40659678791722    2.77234388854940    0.48559897831767
H          -2.17681587120963    2.77098481450026   -0.18856932102353
H          -1.24772721815662   -1.13866106463308    0.56300051804926
O          -0.82385048425224   -2.02045056418894    0.45832256136986
H          -1.51728848246376   -2.67237312028767    0.57687688676554
O           3.02162226844417   -0.91728933377557   -0.67200197875523
H           3.65311491295484   -0.37439890334737   -1.14460034441998
O           1.62966527315152   -2.50351948014689    1.73014168804643
H           2.17823896712193   -2.68405831121446    0.96188058928179
H           0.73864578592520   -2.32924418065202    1.38942927482124
O           0.56990599218928   -0.91633429562602   -1.61878720730569
H           1.52087020606491   -0.93533620755338   -1.32832497632782
H           0.09111390305781   -1.47731680181143   -0.98286663941176
H           0.09713625650262    0.42627259845877   -1.36411865058396
O           2.66841692410310    0.02806714524122    1.74236461319769
H           1.87116418360168    0.57701521687307    1.68049463340571
H           2.36006086400480   -0.82584558537890    2.09694572026545
H           2.94826024010387   -0.52154832008054    0.24344107112008
N          -3.22339738237048    2.26267664395010   -1.24771417835760
H          -3.21458780912097    1.30995712829372   -0.89653105855017
H          -2.82591132592285    2.26914686485588   -2.17763438357939
H          -4.17518388151709    2.60192986250203   -1.28954134273090
