    26
        -50.45038883  Gyration_radius:  2.64332282409 Dipole_moment: 6.840
 S           0.34336518200090   -1.43063036775267   -0.70121429139615
O          -1.16115751746530   -1.26759443325321   -0.42789671042544
O           1.09941640251089   -1.28404755259576    0.49915592925830
O           0.71084313365294   -0.51455866908368   -1.76403068691358
O           0.42927765132058   -2.87032593142517   -1.21532279937329
H          -0.09524771829424   -2.83888594417771   -2.09383297722207
H           0.89750631158286    1.01575212618215   -1.15702742901227
O           0.81540161967182    1.92230745571205   -0.78351038827240
H           1.12486968345310    2.52593702414770   -1.46157281043706
O          -1.09643094155769    1.12484292966834    2.81980063240148
H          -1.72983408584969    0.66525538345082    3.37142505020413
O           1.67025001046535    2.39145897242476    1.84756812163128
H           1.47877905673012    2.20992326737000    0.91444967912855
H           0.83931081572704    2.67283797854104    2.24033129571236
O           1.22439459392320   -0.07764354373311    2.93951922506231
H           1.24800635066595   -0.65356913154358    2.15933253645725
H           1.71869249054111    0.72092648295831    2.67883957740241
H          -0.23150321506037    0.63408983851758    2.92538227696471
O          -1.58465691824270    1.10158017701490    0.23728056631435
H          -0.81638027820928    1.57174068541656   -0.13297541839187
H          -1.39562596484495   -0.28145050559125   -0.14098912659839
H          -1.46888845889818    1.13706111846921    1.22428232980910
N          -0.89339394396137   -2.27846935701924   -3.32826405651750
H          -0.44990780590477   -1.36606775376846   -3.28450338040044
H          -1.87405266014923   -2.17335142000996   -3.10458010302975
H          -0.80303378382580   -2.65711883990583   -4.26164705237931
