    26
        -50.45038852  Gyration_radius:  2.64470175411 Dipole_moment: 6.845
 S          -0.67356851327174    0.42201714364395   -1.41811845463528
O          -0.57736889328042   -0.99736869947381   -1.31816451740031
O           0.70187630566824    1.08213428332281   -1.22498711729792
O          -1.60253211437249    1.03340716913029   -0.48696315321157
O          -1.03766603342102    0.83461052824738   -2.84703780749860
H          -1.13504969488233    1.85160592494854   -2.78199645280647
H          -1.40177859210082    0.38552335908078    1.02429489551152
O           2.53280052921246   -1.69698820692728    1.07628583848204
H           3.37066683451816   -1.76240192966175    0.61752710752761
O          -1.11978155244467    0.10186641286108    1.92322568770675
H          -1.76737635741372    0.45454155681975    2.53653122742875
O          -0.28923362472639   -2.55074305261897    2.30498596911358
H           0.61447051481140   -2.39727357810140    2.59403571310097
H          -0.67481088032840   -1.67432115841586    2.15163526736685
O           0.71902345925084   -3.10589655996564   -0.17789709383753
H           1.89277506970095   -2.27072341691704    0.56514356693126
H           0.16108590133775   -3.20395370429716    0.61522225821499
H           0.25283677301542   -2.46332981568162   -0.73510493572126
O           1.43061077428537    0.68910904037304    1.13084183995524
H           1.05946792112369    0.94381143470828   -0.24405936079763
H           0.58876593568408    0.52866609934277    1.59323568829658
H           1.90843142470938   -0.18292767842053    1.13597190907127
N          -1.22813563204567    3.29963515738701   -2.17474285349342
H          -1.56354533976570    2.97098331913228   -1.27440426737747
H          -1.85425022702338    4.00789253920069   -2.53401894161127
H          -0.30771398823845    3.70012383228860   -2.05144203301468
