    26
        -50.45582960  Gyration_radius:  2.54113829756 Dipole_moment: 3.472
 S           0.23094190483956   -0.29704807589370   -0.84318521808074
O          -0.99600692825563    0.11682606313350   -1.48755020488717
O          -0.03511232349247   -0.73689172685208    0.55213260310324
O           1.25818245856169    0.74263493834959   -0.83962331421733
O           0.83580508826768   -1.50022956375187   -1.57548968851429
H           0.08343996955978   -2.22729048723096   -1.68088998177386
H           2.47669755104581    0.98613994322985    0.19994197390345
O           3.05094027258438    1.03789504619400    1.00669876539143
H           3.70526243558617    0.34327433917422    0.91405751044949
O          -0.35706704781490    2.76427895434299    2.01482391721257
H           0.13503652719245    3.56937925088619    2.18696048100352
O          -2.60825475432366   -1.53930721936760   -0.16855293909870
H          -2.07602207573839   -1.50557592682281    0.63267000928245
H          -2.22598251513152   -0.83567134695988   -0.72729530461847
O           0.93014111203797    0.59741415302450    2.36037964836353
H           0.47571656599655   -0.04176576897685    1.58788627740709
H           1.85065107892996    0.79983542301677    1.97504045624472
H           0.39145441892288    1.47395239143202    2.31208672552931
O          -0.56010153951167    2.64800654935003   -0.58797950766383
H           0.26513828114429    2.16636441964092   -0.78386235320851
H          -1.23299517969347    2.06478683554402   -0.96205296448829
H          -0.53939116501594    2.75690188483725    1.03439868428261
N          -1.04734076623445   -3.20314961380973   -1.77634352378494
H          -0.84130904224077   -4.13018597300640   -1.42972158731973
H          -1.39409562694797   -3.27561082015971   -2.72323590733299
H          -1.77572866024834   -2.77496365931387   -1.19129454708629
