    26
        -50.45038877  Gyration_radius:  2.64313329607 Dipole_moment: 6.841
 S          -0.57495320322982   -0.64772837263403   -1.38154738974631
O          -1.48390804260067   -0.90293805740333   -0.31262070871671
O           0.83309074687980   -1.16456582930121   -1.04247995387500
O          -0.46404693494934    0.74746330766936   -1.76219276016359
O          -0.94448945890729   -1.48428649148924   -2.60963497865104
H          -0.26842862055502   -1.17886360374664   -3.31504359352757
H          -0.34406732829332    1.69935956205864   -0.41167466523572
O          -0.09410223417637    2.19172496019359    0.40267833097327
H          -0.09004794853381    3.12188172128510    0.16880758545833
O           0.78515916426763   -0.94263814756354    2.98455726695785
H           1.14998539547021   -1.80182543403023    3.19778902716419
O          -1.28802957059750    1.48100307114687    2.84073355920912
H          -0.97376821012895    1.75864888067147    1.96642375801514
H          -0.50576587244042    1.22045123528081    3.33469962981404
O           1.74523140976431    0.21427317510804    0.82866854294601
H           1.26553304174994   -0.61495697206280   -0.25448470607739
H           1.22144691925759    1.03322848456086    0.77068060928111
H           1.45235803034152   -0.23065626545131    1.66839580109048
O          -1.75117514765456   -1.17737391728902    2.38536518216766
H          -1.77705092974226   -1.21805662480808    1.41656602313339
H          -0.18347735112971   -1.09537491277932    2.78818467592004
H          -1.95009901069743   -0.24877715553070    2.60456421109665
N           0.87886863065761   -0.36456469576378   -4.01883487537748
H           0.69879220482934    0.47938585500831   -3.48373591635067
H           0.87589527721755   -0.14912277529452   -5.00691320392113
H           1.78704904320051   -0.72569099783703   -3.75895144157920
