    26
        -50.45538184  Gyration_radius:  2.56574743185 Dipole_moment: 4.086
 S          -0.36536973394197   -0.96627577845119   -0.18150924871376
O          -0.96198624913678   -0.48746008605810   -1.42622314250037
O          -0.20384700292924    0.17922260335998    0.74800478389459
O          -1.40030561072499   -1.91104523608819    0.46760105723068
O           0.88537623712322   -1.66110146206031   -0.36356309986192
O           1.30594905082381    2.66841564662839   -1.66251654836666
H           1.12159398866631    3.11588637301886   -2.49086504206847
O          -2.48625538257058    1.59342594956073   -1.61429040592208
H          -3.34883621570625    1.37911766149438   -1.25426665838482
H          -1.98574722929822    0.73745134696325   -1.66235269727953
O           1.45309029448808    0.14221987718691   -2.31123426727254
H           0.50513045149263   -0.08168238449407   -2.30063907683038
H           1.48126610666420    1.71496150487907   -1.89669368985976
H           1.82052213622034   -0.49608087067726   -1.68515146553020
O           0.34060957073686   -3.29460054176503    1.70103972845823
H           0.90770333465657   -3.06425029704470    0.94952398460516
H           0.57330992338688   -2.63475559026384    2.40038104749239
H          -0.84936995191163   -2.55834556477788    1.01649332813913
O          -0.65619994200418    2.45174979772816   -0.07091903923642
H          -0.45070675775566    1.48201373116718    0.35379300194458
H           0.15703581642095    2.63101092674234   -0.68517239998031
H          -1.45330724796420    2.26606348009361   -0.68559467327685
N           0.87878312854277   -1.07234777434937    3.11717683438344
H           0.53211213921518   -0.52404490098449    2.33054302752016
H           1.84522970806209   -0.81172560218592    3.26826751133406
H           0.35421945742750   -0.79782280966245    3.93816715015896
