    26
        -50.45038856  Gyration_radius:  2.6428320153 Dipole_moment: 6.839
 S          -0.94375746577737    1.20962383667514    0.55670732375675
O          -0.06318071705930    1.65554230047839   -0.62247575977071
O          -0.14820698152173    0.69251985934388    1.62142886292437
O          -1.94683118857245    0.29287497751288    0.04955358334718
O          -1.61553373709500    2.51957592980722    0.97795434311248
H          -2.19177410360830    2.76013634017050    0.16698227870230
H          -1.29399208081053   -1.21654956849908   -0.14951084790544
O          -0.81622652324227   -2.03326171257184   -0.41935181650071
H          -1.48601857742679   -2.66528126481355   -0.68734921833560
O           3.13104559319478   -0.76025240352057   -0.16393419811923
H           3.83391297487334   -0.11879953322027   -0.27014894748986
O           1.27547581146138   -2.97801873003418    1.19442610854574
H           2.00215946503212   -2.92279467758433    0.56777202261454
H           0.48664439339413   -2.67482240750747    0.71887562158310
O           2.15537527020832   -0.61600611282075    2.25971433364183
H           2.81762167081516   -0.67181632578218    0.78161873046056
H           1.37110999688406   -0.05043886157701    2.18240194472781
H           1.81216281218787   -1.52801595846900    2.24022692443381
O           0.98593292254525   -0.37286854246570   -1.63195036468824
H           0.39358968543798   -1.09033909967696   -1.34426864268974
H           0.40589370277766    0.83392002461016   -1.08605183894228
H           1.83792861053644   -0.51674906475818   -1.13966057515639
N          -2.91498180332095    2.65249025818661   -1.22639205094331
H          -3.84063087743277    3.02204884434313   -1.39768544747710
H          -2.94996924002333    1.63793086177210   -1.20447356135641
H          -2.29774959343462    2.93935100038480   -1.97440881847941
