    26
        -50.45038879  Gyration_radius:  2.64404047863 Dipole_moment: 6.842
 S          -0.13980653891923   -0.03199559991268   -1.62208432243536
O           1.19733886619114    0.29842029343532   -1.25226134998588
O          -1.14444644025904    0.94023148105700   -0.98149619844980
O          -0.54429486014262   -1.38417340463678   -1.28781223155877
O          -0.35692199026608    0.21076652100872   -3.11828666587197
H          -1.31646986071019   -0.11019351613517   -3.27269078452872
H          -0.06576058502888   -1.75987732656935    0.25298477964120
O           0.07781459402423   -1.86310454585768    1.22085868740117
H          -0.12971004383683   -2.77543428087939    1.43178412901147
O           0.90347787875060    2.06099552704885    2.31717561141734
H           0.77535216221289    3.00879120726907    2.27287777487634
O           2.39187144844259   -0.76636800095349    2.36662419234487
H           1.99080090925265   -0.14554065512102    2.98105731415308
H           1.65736120603649   -1.21270729313123    1.91762013207108
O           2.81232914778557    1.34494108543663    0.67697680155955
H           1.65497969627701    1.85469548432353    1.69036459875324
H           3.00459149257389    0.52288400250773    1.16399722985999
H           2.35154966642517    1.05887247733184   -0.12717265215872
O          -1.10863473437569    0.58582152218872    1.49000688031303
H          -0.76215802427890   -0.32036084173305    1.57394985718060
H          -0.39464054316557    1.17868518029620    1.84721083744670
H          -1.16798249735038    0.83375265995091    0.06616000589437
N          -2.72626316364339   -0.75912110692237   -3.01309347535242
H          -3.22862100365756   -1.28505608703555   -3.71576600322258
H          -3.35478073505128   -0.09509350416716   -2.58091954888827
H          -2.37697603727342   -1.38983128881052   -2.29806558948117
