    26
        -50.45582901  Gyration_radius:  2.54060174497 Dipole_moment: 3.480
 S           0.50769396549106   -0.37080343138376   -0.67973395547499
O          -0.61579274160551   -0.93786358189275   -1.39319084718185
O           0.26692832095044   -0.40865326175620    0.78719657047174
O           0.81695493071576    0.99771554467603   -1.08879452855291
O           1.77248369314022   -1.19696839491144   -0.93888873732950
H           1.54652444871444   -2.20518017264231   -0.74320309991748
H           1.50098991393337    2.20021170648800   -0.24575785209533
O           1.79655750535781    2.82199400548124    0.46793604566846
H           2.72339627235870    2.63102027582935    0.62200847597010
O          -2.12484338603683    2.55703004708481    0.85523985481218
H          -2.17653805435197    3.50369551477415    0.71006079073701
O          -1.32716124082449   -2.67912540228114    0.48916527225234
H          -1.04500717535576   -2.10078886308441    1.20500112467321
H          -1.27720877523522   -2.10689838937253   -0.30047947717135
O           0.02014927565270    1.73171993582490    1.94477645020247
H           0.74744356826767    2.27832209453768    1.48790175280004
H          -0.88017397853794    2.08416303659359    1.58885604183817
H           0.12700097704841    0.74084093346895    1.47689178420648
O          -1.73930528959662    1.53232879977169   -1.51681867783239
H          -1.91454217614951    0.58832877203321   -1.62542256393844
H          -2.08577822282020    2.14048330911457   -0.05039838710699
H          -0.76506662952422    1.56623997059223   -1.54315242681532
N           1.13603780765790   -3.61080255958893   -0.43387782429894
H           1.06130641447289   -4.16841458910250   -1.27379544342046
H           0.19805447832447   -3.49702482708632   -0.02959401830098
H           1.72989609780493   -4.09157048352403    0.22807367583126
