    26
        -50.47250276  Gyration_radius:  2.48724812081 Dipole_moment: 2.871
 S           1.99743025169458    0.81345841966721   -0.70185330116897
O           0.83471242958429    1.47831720570249   -0.14524013415062
O           1.67720325922436    0.09061869824512   -1.92664129870276
O           2.69995220793746   -0.02037475697011    0.25468514411341
O           3.00883738273807    1.96269213862270   -1.10955099924562
H           3.79142277789829    1.45796301649273   -1.30202493800147
H           1.75155846521448   -1.10840512237780    0.93055723093217
O           1.13344081386461   -1.73712913693503    1.38746142806648
H           1.67509377992256   -2.46893207056541    1.68651747199755
O          -2.38434782808093    0.19653544414138    1.36682348172703
H          -3.04202220581084    0.34219934541613    2.04704575964962
O          -1.75729227708504    1.67749347273360   -0.87208570340711
H          -2.15696796675605    1.27244003927588   -0.08075815898732
H          -0.84032062429178    1.88175683132327   -0.61073200350527
O           0.01746592097940    0.65920419276275    2.26272056772718
H           0.42993331321563   -0.21693389724168    2.27330642844711
H           0.39418655366012    1.09613043369972    1.47258605634383
H          -1.49792506172984    0.41296262822920    1.77895549083497
O          -1.27209344065065   -1.98991052843652    0.11466374869275
H          -0.41055085903731   -2.00529062500829    0.57287963545915
H          -1.81112933765991   -1.34195515978079    0.60331260273741
H          -1.03174599858979   -1.21892087748781   -1.26186323465035
N          -0.85868598133673   -0.50453378980302   -2.02891629436651
H          -1.33696614905934    0.39583120324298   -1.72224483506699
H          -1.19255152761029   -0.82916936946884   -2.92890366857143
H           0.18136211176590   -0.29604774548027   -2.06070048690770
