    26
        -50.46742652  Gyration_radius:  2.40222429855 Dipole_moment: 4.774
 S           0.33228686193668   -1.46206099873544   -0.84539591247255
O           0.18250619038433   -0.15326484775700   -1.48138607413298
O          -0.34404538572113   -1.35036680560832    0.57415094517279
O           1.71701627956107   -1.82534282149758   -0.66751435786650
O          -0.49922724927162   -2.46646299429555   -1.50407620466674
H          -1.80174992167276   -2.06958129136044   -1.04088333639584
H           2.59514177994495   -0.63381539242266   -0.03413973546689
O           3.06081159908370    0.10065169251585    0.44612846139203
H           3.94157899240747   -0.22827277778492    0.63189577284043
O          -0.42641841506267    2.30461138457780    1.06570130063585
H          -0.54496574466085    3.22092819480942    1.31789876641377
O          -2.06251006701294    0.85417963471019   -0.66742096670575
H          -1.23287991524102    0.58126344082296   -1.12998829294655
H          -1.73514128866352    1.34624825280739    0.10466871772039
O           0.95080212887862    0.19987941997232    2.15033690790574
H           0.45567416246655    1.01420625917153    1.94716515920478
H           0.19733296010927   -0.79686406274006    1.22178612975081
H           1.80674386101028    0.26686045272611    1.68497603867873
O           1.46589129528838    2.04594486757373   -0.72687314805311
H           0.27679039838514    2.29976836575388    0.35567608623352
H           2.24282851049085    1.63430338865111   -0.32227878113264
H           1.03206083107896    1.30747626644231   -1.20047573655231
N          -2.72287079358940   -1.66279345308791   -0.58177156666140
H          -2.77388406503263   -2.02973662627347    0.36432201511776
H          -3.54937800638325   -1.90268645758496   -1.12023294823812
H          -2.56439497872778   -0.59507307136886   -0.54226923975737
