    26
        -50.45754059  Gyration_radius:  2.44556408172 Dipole_moment: 4.174
 S          -0.67607794273047   -1.51055647879513   -0.09184365692427
O          -1.50260966633288   -1.64557626106923    1.09496688744933
O           0.68282943734677   -1.07337463883600    0.25272437200341
O          -1.25554423799029   -0.57187613388173   -1.05548227568229
O          -0.57505955908687   -2.89898043668286   -0.76017859075937
H          -0.04769439733638   -2.69932675337734   -1.58875497910337
H          -1.72240210789959    0.75749220461464   -0.29966573242034
O          -1.95950133606758    1.55964830103269    0.23746041203412
H          -2.88813901715070    1.72782718186110    0.06806100297532
O           1.04727645003804    0.37211433019003    2.40572330827025
H           1.05705634523362   -0.28597845782116    1.66582779352982
O           1.77624414835098    2.47675341772452    1.01354933760431
H           1.53890328023307    2.08506117581170    0.13916323427947
H           2.71164508796173    2.68048448915714    0.97387340924566
O           1.09972029448007    1.10857628911935   -1.17455559595457
H           1.35233610290028    1.22835568703506    1.99818663355647
H           1.01444114324828    0.25404268431528   -0.69584177764251
H           0.20155846873011    1.33875332061700   -1.42680458132653
O          -1.40439386379218    0.44263318009681    2.49201012887588
H          -1.53950980454975   -0.48261302497072    2.07122446997495
H          -0.26777224969188    0.47787924621325    2.57649719934338
H          -1.64216913443018    1.05916478175440    1.72722340925103
N           0.67747399005632   -1.81117021655917   -2.76383005558275
H           0.00384533524051   -1.05921196868863   -2.65565736376499
H           0.73776572133834   -2.06415229427685   -3.74159986083976
H           1.57977751191296   -1.46596960458853   -2.46227713839606
