    26
        -50.45054791  Gyration_radius:  2.51912015499 Dipole_moment: 7.511
 S          -0.78298617160599   -0.27527079307742   -1.11743579323366
O          -1.60786146324082    0.18117393443462   -0.04103401401724
O           0.23275619493646   -1.32106207258014   -0.64161668060461
O          -0.05162974507005    0.78164473290476   -1.78911255865873
O          -1.61623428162975   -1.04681983164969   -2.13475480048499
H          -0.92989897952914   -1.30449256060769   -2.85765503680355
H           0.67150442019248    1.78058972850302   -0.68336896189563
O           1.14903140954223    2.23054610232908    0.05063892882504
H           1.69012728361952    2.91221632434304   -0.35193601424683
O           0.16881188806331    0.01302883682840    3.25328764162760
H           0.29954253255670    0.20390234262389    4.18245496739592
O          -1.60064131488057   -1.84876333289848    1.93677117969944
H          -0.99654211980809   -1.38734633409749    2.53125042524165
H          -1.78954157366894   -1.22632881344592    1.22599798513670
O           1.71265814899815   -0.24806690561562    1.08083108210024
H           0.86706912309325   -0.95235990996295    0.10064338083921
H           1.67549969243855    0.68812783737784    0.81151348665389
H           1.23682353305748   -0.29713119357121    1.93833100196956
O          -0.94314196741061    1.99140338855612    1.90333783521039
H          -1.44568835537181    1.43773913440959    1.28492135078462
H          -0.31345431941388    0.78694120472348    2.86262620307705
H          -0.20642415614798    2.33638596843477    1.37872044008445
N           0.40458573126050   -1.38906958509430   -3.65368314586167
H           0.44140925255162   -1.50017076528753   -4.65822502738635
H           0.99826919592947   -2.08130917008388   -3.21614942444795
H           0.73595602157561   -0.46550826748416   -3.39635443100541
