    26
        -50.45054791  Gyration_radius:  2.51920020047 Dipole_moment: 7.511
 S           0.01363121696203    0.34693628207460   -1.34813206017222
O           0.79618831226779    1.27757800625041   -0.59385378744260
O          -1.32902919765467    0.05968356740491   -0.66508925625897
O           0.67331128798831   -0.92273884015212   -1.58444297651404
O          -0.40501891289599    0.96108904810431   -2.67926525866018
H          -0.93776394681968    0.20546988587144   -3.13254241353765
H           1.34760156335111   -1.49610974651778   -0.18429652871791
O           0.06467787532532    1.07382717771633    3.07527075712693
H           0.22291686166144    1.24011878564677    4.00488894429349
O           1.60031413086965   -1.79436320765051    0.71926228992172
H           2.00011441411565   -2.66028996556832    0.62004688464753
O          -0.99969770708405    2.77914743458541    1.00395157767476
H          -0.37956545214289    2.43759857592445    0.35042273765432
H          -0.79102673173146    2.31702085260964    1.82501995439960
O          -0.86135569997314   -0.95055538394172    1.58646049479108
H          -0.68814002125744   -0.20725669211076    2.20416658677701
H          -1.21223708884398   -0.33731900948833    0.29290958738240
H           0.00363666228381   -1.37315130669291    1.43311539560967
O           2.26996620991043    0.76314852195549    1.65634762869606
H           1.93598804262885    1.16521313213712    0.83884358803434
H           0.95092866525763    1.04394166792656    2.63053455208967
H           2.27823539479339   -0.18764582837672    1.47498413794500
N          -1.56871612642941   -1.19139373191367   -3.40035740039590
H          -0.84086348384777   -1.72330280346757   -2.93526761864380
H          -1.72209482216543   -1.55817489458114   -4.33027071998244
H          -2.42200145653938   -1.26847154773531   -2.86270710672139
