    26
        -50.45754069  Gyration_radius:  2.44554783291 Dipole_moment: 4.171
 S          -0.91702307156038   -0.89443775337256    1.05599436346050
O           0.07375777698428    0.16614220249157    1.28027928164125
O          -0.29980643782519   -2.20860434626467    1.09802985227945
O          -1.60159773679063   -0.65437109086262   -0.21636492536824
O          -1.95840930827584   -0.82185789692866    2.19397388909978
H          -2.36817217522392    0.08147711898589    2.05060717663105
H          -0.65028804310236   -1.08029092726782   -1.42769753417396
O           0.01001695078382   -1.34015669999127   -2.12402340920054
H          -0.43307919402325   -1.97924803832060   -2.68492332336109
O           2.56793048868893   -0.25275724713286    0.60305136031699
H           1.70284445621010   -0.03750759889794    1.03427675218251
O           2.49132990677123    1.58226937185963   -1.27409501095356
H           1.51677189909208    1.72585941000725   -1.21038676924001
H           2.90250658668283    2.42699362793184   -1.08600117764346
O          -0.12759465491809    1.77412908831922   -0.80475954857701
H          -0.08691105402643    1.24779745778349    0.02469405155751
H           2.67337309761460    0.42096337187754   -0.12319557191119
H          -0.60097228217121    1.21566430384738   -1.42705326399881
O           1.69627419494933   -2.30168141091012   -0.42867470906419
H           0.94185729607112   -2.43602083578484    0.25242066351923
H           1.19447656249013   -1.95592491611709   -1.23485326298120
H           2.23050454484962   -1.39667461068295    0.01578990290153
N          -2.72907897457074    1.49551277609139    1.29789802563710
H          -1.98774629766640    2.17463541916600    1.41400943268766
H          -3.61828016844992    1.97642436736086    1.33961627968827
H          -2.62268438261179    1.07166485681229    0.38138749485223
