    26
        -50.45754074  Gyration_radius:  2.44554865329 Dipole_moment: 4.173
 S          -1.30602069027740   -0.95670726754609   -0.36534030180417
O          -0.04258983619530   -1.25265614298422    0.32243822008298
O          -1.20761772681888   -1.23129746566822   -1.78822412365559
O          -1.68384080315345    0.43396803508956   -0.10355300836135
O          -2.39587453503792   -1.87948618062699    0.22227641607572
H          -2.43496491488780   -1.58148296404743    1.17835614327419
H          -0.79442926140757    1.41176770399731   -1.00207720089268
O           2.20574305028593   -1.06834002848319   -1.00569173893656
H           1.42431079749384   -1.31752372560762   -0.45056368828537
O          -0.18384145768948    1.95230684730065   -1.57065683952095
H          -0.74681629965218    2.51972022003944   -2.10022003889841
O           3.03585847508102    0.95772744638597    0.44432913648474
H           3.69152278928444    0.78023603589159    1.12003559648620
H           2.17689122665312    1.08099687635116    0.91476594579513
O           0.80916483721899   -0.09839023826313   -2.77501435221598
H          -0.02703641695238   -0.64461171800343   -2.54425855800484
H           0.57482063155824    0.81311596443781   -2.40692448822628
H           1.56581380230717   -0.54239002249663   -2.04487509373333
O           0.61888706014159    0.97717225060844    1.57340425661869
H           0.36006254248537    0.10757964420508    1.19469815706764
H           2.63875053670816   -0.31153962529132   -0.52372400034444
H           0.06381666191578    1.61718978944626    1.12005992542570
N          -2.16659281519944   -0.64683833381394    2.50150650926521
H          -2.09608978339790    0.19207526274837    1.93388520090006
H          -1.25528607463240   -0.82804409013946    2.90265862338571
H          -2.82464177572786   -0.48454828347657    3.25270929200309
