    26
        -50.45538182  Gyration_radius:  2.56578291178 Dipole_moment: 4.083
 S           0.86990667504549   -0.19311719840671   -0.55358414202184
O           1.62754566052349    0.98873876336828   -0.22263371100794
O           1.14677788636168   -1.33506619898046    0.31461568220879
O          -0.58694518629569    0.08861008864099   -0.53015721670535
O           1.20317234144487   -0.64362682107243   -1.99274145809042
O          -1.14878370385682   -0.09346567035031    3.20337472639879
H          -1.05499723303004   -0.69330274078560    3.94618978677367
O          -0.55249516827665   -3.20670257105630    0.86106977012764
H          -0.64057600268163   -3.77797773477307    0.09589460222420
H           0.20964974654962   -2.60070347582370    0.66780287153089
O           1.75035654779747    1.70072699759599   -2.81215626168813
H           1.45716461341415    0.20788144027823   -2.47658524530142
H           0.82735369189467    2.05441289405053   -2.85100920548829
H           2.02908846140821    1.84581844717945   -1.89526644363180
O           1.29910133537315    0.30904868255536    2.38487166503042
H          -0.22295013246670    0.16924219098979    2.94184264436206
H           1.41203339687137   -0.47911065202129    1.82364967317230
H           1.48998105292618    1.02801568482507    1.76763002790564
O          -2.01120487546260   -1.13269477946362    1.05718016214010
H          -1.44543255371040   -0.56969866088149    0.33199513352288
H          -1.56263823692300   -2.05241248534872    1.03092051143468
H          -1.75285707702682   -0.70215289139172    1.96206232534989
N          -0.83935479960752    2.28907518770752   -2.38646004896045
H          -1.56901227453378    2.10449931634321   -3.06325919788862
H          -1.07143687397649    3.15247802979161   -1.91170571651145
H          -0.86344729174662    1.54148414701657   -1.69354093493233
