    26
        -50.45754082  Gyration_radius:  2.4454470407 Dipole_moment: 4.172
 S          -1.15144199621732   -1.16987525142006   -0.24875789347294
O          -1.92282853473685   -1.23086832820237    0.98041228871845
O           0.28924769146291   -1.26070745628189    0.02199516655698
O          -1.42435576747302    0.05538347091691   -1.00328818544348
O          -1.54947370477339   -2.38109056793022   -1.12014640597601
H          -1.02011049583307   -2.22465433765743   -1.95665096796902
H          -1.37975615817376    1.31452201657210   -0.01973288795220
O          -1.30638478948373    2.04632103161233    0.64912669676888
H          -2.12939847665645    2.53566879332085    0.59872061830505
O           1.21161348142044   -0.40927168251924    2.31915550596551
H           0.96708920252980   -0.89599716853291    1.49196047476282
O           2.55143882503214    1.54831776234811    1.19303730771312
H           3.49769263400433    1.43765399036424    1.09117412925342
H           2.15691293384428    1.41484898844029    0.29806554463076
O           1.35404062523828    0.88181730391431   -1.09541296672518
H           1.00496750327799    0.03212260188255   -0.74487251547179
H           0.57740230647982    1.43417357807778   -1.21791997600804
H           1.77159989919903    0.35709690611599    2.01620476878184
O          -1.06570830935050    0.44181889663176    2.65175106759914
H          -1.52320047790230   -0.30269100825236    2.11604288545822
H           0.01991192843352    0.08859054134959    2.62962691903681
H          -1.11349014731901    1.22274144129088    2.01221544662359
N          -0.08714822141969   -1.43136057550805   -3.05057598086575
H          -0.46599117272385   -0.53212669746634   -2.76986439778834
H          -0.15205218987970   -1.51908489496022   -4.05645264643120
H           0.88942339101461   -1.45334935408835   -2.78581398608133
