    26
        -50.47250231  Gyration_radius:  2.48726081722 Dipole_moment: 2.863
 S          -1.97773585963262    0.70147795416927    0.86051119695732
O          -0.87578111478664    1.43709765219537    0.27023725361657
O          -1.55727442246164   -0.06680867853466    2.02580111427150
O          -2.70721735247693   -0.11166923906432   -0.09367345184127
O          -3.00324981574205    1.78916513531155    1.38488978426260
H          -3.75685912260240    1.24629916921886    1.58908096316918
H          -1.76473173703069   -1.12833369485948   -0.87993267051215
O           2.28747634443224    0.35403744441677   -1.49396568728797
H           2.89675048243224    0.55918676529204   -2.20331275819593
O          -1.15430595929599   -1.70975432455831   -1.40477139579648
H          -1.68762467626886   -2.44554428838705   -1.70895598066324
O           1.74756673650932    1.69870343350620    0.85072351779572
H           2.11164693728015    1.34803390924809    0.01731600413069
H           0.80970078437385    1.88059392570609    0.65537245074982
O           1.33186689800203   -1.93201382826872   -0.29111833282528
H           0.44501522038404   -1.95818648710195   -0.69762536869902
H           1.81680802379430   -1.24089800051220   -0.77726912852514
H           1.14963918923501   -1.23881880400709    1.13507834476038
O          -0.17957567991748    0.76779054357002   -2.22048411295821
H           1.37037606304679    0.55613385548951   -1.84111611814022
H          -0.56065748553523   -0.12198916189711   -2.25121220302558
H          -0.52213518624295    1.15086414006585   -1.38796335250634
N           0.99917789383765   -0.56976297392919    1.94640022787161
H           1.39897814836463   -0.92490721792945    2.80714184846222
H          -0.04363438080971   -0.40276844715093    2.05090754700551
H           1.42578007111258    0.36207120801101    1.65794030792529
