    26
        -50.45054788  Gyration_radius:  2.51919373009 Dipole_moment: 7.505
 S          -1.24222754903099   -0.30054222318081    0.55129945199180
O          -1.06907987583819   -0.34954043013120   -0.97168809136394
O          -0.74856889631654    0.92748917278772    1.09503754064642
O          -0.61795789682040   -1.48522430251235    1.10816711949950
O          -2.75419011190202   -0.38921169241487    0.72601196101429
H          -2.98686858964306   -1.30690148164432    0.32111639000425
H           1.02883146700671   -1.30864391421755    1.14759795389821
O           2.03832008011034    2.35065037990213   -0.96651466848492
H           2.77454404895057    2.93534782144175   -1.14823399931435
O           1.99018869609800   -1.14538062544365    1.01271817366435
H           2.44710144427215   -1.93006474903063    1.32099456178426
O          -0.80477859486801    2.84518441801484   -0.99064330290609
H           0.14599339631263    2.82161328148773   -1.15429959038954
H          -0.94694132021887    2.29399175664959   -0.21328135381645
O           1.86468075714667    1.60328487570697    1.56029767260743
H           0.89598749781538    1.56456143698493    1.60041273539147
H           2.14495177749783    0.67722630500171    1.53243569303397
H           2.02836108792896    2.19133567129544    0.01258258925109
O           1.38424778164754   -0.19370009187251   -1.48694698342244
H           1.77634868774962   -0.57117447796723   -0.67812519497782
H          -0.07074978794275   -0.26078643590088   -1.26277232007435
H           1.61923890982792    0.75954555904886   -1.47633659020867
N          -2.82131593805684   -2.71824200435868   -0.31255349499353
H          -1.93140588170915   -2.92451071839978    0.12850325566285
H          -2.67403839449806   -2.61028446813490   -1.30743963121444
H          -3.47067279552141   -3.47602306316175   -0.14833986727621
