    26
        -50.45582919  Gyration_radius:  2.54070545331 Dipole_moment: 3.476
 S          -0.14958814273253   -0.01223002795557   -0.91359692648364
O          -0.68784667927239   -0.48192881225142    0.39057767276586
O           1.07228570944609   -0.71418281830322   -1.24066909131930
O           0.01293915973497    1.43988419656599   -0.88027019571738
O          -1.22652948183975   -0.30388607827130   -1.96453000024123
H          -1.29389237683412   -1.34699444962077   -2.07880171483252
H          -0.79898512976438    2.55198228470307   -0.02714444688938
O           1.78427446522753    1.45973244162184    2.54414423736611
H           2.05295388544881    2.34636953778509    2.79250028717888
O          -1.30945513486356    3.04093028591331    0.66835823194175
H          -2.20457412401815    3.12312742561207    0.33491989106750
O           0.45220610243783   -2.99566935723879   -0.01926346782360
H          -0.05451954495328   -2.55230175577050    0.66856436471559
H           0.89767172549185   -2.26186244587349   -0.48455406505828
O          -0.71769248959001    1.11713701565601    2.24112405848087
H           0.28240186833753    1.24170978040409    2.45488364288923
H          -1.01855451723483    1.96041254283566    1.75652216983937
H          -0.73175030980751    0.35808938082291    1.44413549426805
O           2.48517313866270    1.22221015612786    0.03853075612527
H           1.67574556920676    1.56751096211551   -0.38167097483202
H           2.13958733526823    1.31143991400698    1.62386561647322
H           2.53903268623305    0.32825187275042   -0.32404728151123
N          -1.32406699515182   -2.84099551321755   -2.16684691521099
H          -2.23787403061087   -3.25627215415033   -2.04624761882753
H          -0.71282106657496   -3.13327482559927   -1.39416912861266
H          -0.92612160224289   -3.16918959863567   -3.03631458581201
