    26
        -50.45754058  Gyration_radius:  2.445556503 Dipole_moment: 4.173
 S          -0.00003248966814   -1.39376773560862   -0.89958579105825
O          -0.36006105185696   -0.01231196364487   -1.24388603740440
O          -1.16190798999458   -2.14672046510172   -0.46030065142410
O           1.05534639217281   -1.37889428137808    0.11588984819011
O           0.55300083999664   -2.07313455629263   -2.17127048658591
H           1.37440814002454   -1.53161246774696   -2.36258524282897
H           0.42455720916406   -1.03236367548511    1.54297544614388
O          -2.40805776759838    1.10639151103268   -0.05542759877232
H          -1.72201712494049    0.74727205760917   -0.67253314146910
O          -0.03855283562834   -0.78436174869113    2.38698122499712
H           0.17845466087431   -1.47045352060879    3.02064179163817
O          -0.88674753709423    2.85298762550764    1.18308925248609
H          -0.86596314045087    3.74660042573835    0.83808127312288
H          -0.03693767366378    2.42981942719528    0.91281875768387
O          -2.39328319205640   -0.90705260630478    1.34780895354995
H          -2.04149184382583   -1.53065960416349    0.61375430044058
H          -1.57398576404879   -0.77690950845578    1.92515607147869
H          -2.51891605709209    0.06456279446747    0.76474519722353
O           1.21341305761332    1.51292041054684    0.22899550489051
H           1.51457005476032    0.88477151876664    0.89079950269879
H           0.67454465543665    0.97917464069772   -0.39669144095960
H          -1.94795947131946    1.82589253292147    0.45730678129438
N           2.58679783275158   -0.45217581532907   -2.11641298042089
H           3.53891802903055   -0.54946606092162   -2.44458052133411
H           2.56324478768815   -0.60609323861621   -1.11308058297279
H           2.27865826968408    0.49558428385173   -2.29268943056810
