    26
        -50.45054784  Gyration_radius:  2.5191057611 Dipole_moment: 7.508
 S          -0.37398311188703   -1.16488467315587   -0.66435913365867
O          -0.58052953466175   -1.31516427127145    0.74350447465662
O           0.99288301447095   -0.53880713603907   -0.96767547322865
O          -1.38619385448540   -0.36521800063641   -1.32691657521078
O          -0.28022673744960   -2.53038960346614   -1.33593019264887
H          -0.15030663383800   -2.29750914196850   -2.33041447106411
H          -1.67661448689881    1.02589658157435   -0.47601298162780
O          -1.67995266273481    1.86429023000613    0.04009178164042
H          -2.30190263108253    2.45088082305308   -0.39418619008652
O           1.25803403114445    1.28500894483472    2.71609810557368
H           1.47201534549172    1.79292673776189    3.49913383090151
O           1.97774552168266   -1.40542774346451    1.95971481056358
H           1.94170675102676   -0.50355498249881    2.30114563566155
H           1.10718820300846   -1.57390974489603    1.58281439990484
O           1.05958647550257    1.74122371106195    0.08426513833921
H           1.10430047278634    0.40397039147558   -0.53478426447229
H           0.11423430276828    1.97930131871142    0.08997532863684
H           1.30765259415767    1.61601462078367    1.02591850085888
O          -1.29448836779017    0.63330714278366    2.53096184394493
H          -1.61455889226281    1.21242737418512    1.82447005406634
H          -1.16051326272929   -0.22618318866602    2.10107637362756
H           0.29958314331248    1.03814003975602    2.78294666192946
N          -0.03872930242410   -1.47022696049202   -3.64350705815784
H          -0.30647482959574   -1.83328130639267   -4.54866676237711
H           0.89246525719349   -1.07928774147940   -3.69921031564098
H          -0.68292081449796   -0.73954343149225   -3.36045353205331
