    26
        -50.45754080  Gyration_radius:  2.4454625195 Dipole_moment: 4.172
 S           1.36059989989111    0.89599863489192   -0.32097588679704
O           1.12623964625152   -0.55383264339801   -0.31017591482401
O           1.83901111740023    1.36133212491939    0.96903587522053
O           0.13063305816071    1.58054309116754   -0.72556549928125
O           2.45474590884963    1.19378161150685   -1.36920850479114
H           2.01890442317482    0.89879230519760   -2.22205476264611
H          -0.89846132202433    1.60449581957557    0.49704978686018
O          -1.49155753780392    1.55240856621782    1.29316902494975
H          -1.75655510163833    2.45341035717302    1.48636530147079
O           0.50041810081325   -1.72861847945208    1.94347233239219
H           0.87452193076997   -1.42804772380460    1.07700001099560
O          -1.90530270269403   -2.34748546746854    1.09239011877035
H          -1.84130945023521   -1.81234779918939    0.26534653108513
H          -2.05890946070239   -3.25250532281863    0.81790130424499
O           0.33393391982454    0.55814622487711    2.81733659252527
H           0.38833585076878   -0.54943845665776    2.54365699079836
H           1.06081864307106    0.94480518802703    2.20695753425419
H          -0.51138068303571    0.90608417267790    2.38683505971070
O          -1.38420295242132   -0.87005540186448   -1.06658523165527
H          -1.73241412663358    0.01571370866613   -0.93457017100180
H          -0.42432913470926   -0.79475859196593   -0.86761565067511
H          -0.42549362874451   -2.03343790351031    1.73721555097911
N           0.82788072231807    0.41113817123747   -3.24221633442578
H           0.74480996026338    0.66577137306706   -4.21789503173043
H           0.12246484623073    0.90833969582213   -2.70731293673588
H           0.64659807286268   -0.58023326489976   -3.14955609968702
