    26
        -50.45054783  Gyration_radius:  2.51903827574 Dipole_moment: 7.500
 S          -0.12434962283456   -1.04495744267146   -0.91087992661607
O          -1.33839119008342   -0.89310585290887   -0.16885436995144
O           1.10380795267584   -0.99473820499918    0.00617010066412
O           0.05792390299276   -0.05293422841182   -1.95287361969641
O          -0.04240538696806   -2.44232900040871   -1.51497651298827
H           0.84872559152484   -2.42677538170978   -2.03062382589700
H          -0.26365207105623    1.46442950548021   -1.37038034008887
O          -0.36000430724090    2.31884740350277   -0.89102006454730
H          -0.19449861781928    3.01259868285501   -1.53194919838406
O          -0.84057699398549    1.15897207575848    2.92605442309275
H          -1.12309296053708    1.66923207627590    3.68544425956915
O          -0.79338940367307   -1.69406421935774    2.49425917585154
H          -0.75506745723778   -0.79663716755223    2.84705205245556
H          -1.07474931051751   -1.59953762637743    1.57763669122066
O           1.14777620037442    1.24872318823621    1.13432956014553
H           0.67834297582525    1.80172182952942    0.48297222746107
H           0.55160724475973    1.19014567896337    1.91223482414688
H           1.17196741443887   -0.09631809345195    0.53298020404238
O          -2.40298239108901    1.43058220072739    0.81447627029448
H          -2.30278856644910    0.52419745815437    0.48286826342037
H          -1.52905062440524    1.27991061312840    2.22217599192717
H          -1.86723145116144    1.97010052063728    0.21550357559056
N           2.16966293438461   -1.90456569151822   -2.66595025842021
H           2.88411453993555   -1.88114294662064   -1.95028659591870
H           1.83866361142862   -0.95938582919599   -2.82741650577549
H           2.55963797663448   -2.28296956802021   -3.51894640153085
