    26
        -50.45054794  Gyration_radius:  2.51929657679 Dipole_moment: 7.507
 S           1.19558541122364   -0.70960627981891    0.06461613647438
O           1.42067447341992    0.57961703786679   -0.51386668888006
O          -0.04196425175190   -1.38633686933465   -0.53743336033251
O           1.03485505022987   -0.68959026210329    1.50576931311175
O           2.32338397537965   -1.66446095952441   -0.31086976989905
H           2.06509222862287   -2.53788983589144    0.16944837349821
H          -0.01472809513301    0.51036696961812    1.95629045183986
O          -1.76974327618062    2.18370325736809   -1.64881123084627
H          -2.31879859787443    2.90713398107845   -1.95225451651220
O          -0.73543915535454    1.16604550097538    2.09691191656137
H          -0.91567823458099    1.17717978606658    3.03866390073889
O           0.17281331613979    0.58212085162991   -3.05851867866467
H           0.76793046694171    0.56623700361808   -2.30097971972364
H          -0.58459464258062    1.11220750787504   -2.78163414124706
O           0.10312670118142    2.90967096799311    0.06559421713672
H           0.77429871375890    2.27132914017497   -0.22348840453700
H          -1.06565080668406    2.57596926442706   -1.07053529708971
H          -0.22362599891823    2.55672017643198    0.90558155000742
O          -2.03929950075481    0.05528193595593   -0.04520047228553
H          -1.75717218700976    0.50388486229424    0.77306622023812
H          -2.06677816084212    0.75335287395278   -0.73498916531090
H          -0.91102270107592   -0.82625671477857   -0.39588201711444
N           1.31008255850525   -3.54312100315677    1.08606383592944
H           1.01150328656986   -2.85489111725473    1.76882607907621
H           1.76839968274751   -4.31443474340840    1.55279515166296
H           0.49674975400123   -3.88423332206885    0.59083632611166
