    26
        -50.45754051  Gyration_radius:  2.44568480712 Dipole_moment: 4.174
 S          -1.59714650732282   -0.36168035507862    0.25967698836007
O          -1.89853506930832    0.12035583887400    1.59641423144857
O          -0.39646164582911   -1.20710134062426    0.25678200433202
O          -1.41444918066193    0.73982072545332   -0.68838888240950
O          -2.78792975596935   -1.22327356806688   -0.21379128283705
H          -2.52331090471477   -1.45653579233843   -1.15192701290195
H          -0.45709232272653    1.84854361615170   -0.04837262491647
O           0.16524417605425    2.47566568472518    0.40733000424631
H          -0.27096739542436    3.32952115534794    0.40759566460968
O           1.45178127290892   -0.80208857401405    2.06766831596609
H           0.76697639172169   -1.14599869494935    1.44065620250547
O           3.20110885954279   -0.00790235940589    0.27634755797137
H           2.55343648065074    0.01616023301134   -0.46810226701492
H           3.88583938623598   -0.62689489485977    0.01935173414397
O           0.12785219377244    1.18462475771000    2.63675343761294
H           0.82378936300397    0.29506786173470    2.48420708852676
H           0.29933672317793    1.80447067793519    1.85699788336829
H          -0.77601464160548    0.77002856642276    2.38617433353370
O           1.22735269154135   -0.11428299871630   -1.51555716024343
H           2.20532667327501   -0.49860639493416    1.49125376732441
H           0.61704041743350   -0.59767827372526   -0.91507878701709
H           0.83810790041823    0.75919235936631   -1.60928538208221
N          -1.68457446397299   -1.40601055852085   -2.56233937003846
H          -1.45156720657512   -0.42724639687333   -2.42564064856569
H          -2.07761795019676   -1.52727441604750   -3.48670651829333
H          -0.82752545543118   -1.94087685856496   -2.50201931761923
