    26
        -50.45754062  Gyration_radius:  2.44560269719 Dipole_moment: 4.170
 S           0.13984036912258    1.47328626586899    0.75152554243839
O          -0.39814053572064    0.18818473283859    1.21583695861275
O          -0.90501666676760    2.30659442499514    0.18241942572087
O           1.22146939136973    1.22676181777026   -0.20473755266008
O           0.72532566169194    2.21409254936219    1.97340455000821
H           1.46628311099051    1.60241141656920    2.25875357393102
H           0.60474387483129    0.80487351457415   -1.61727596159503
O          -2.52603859648412   -0.80067954224157    0.05280660205843
H          -1.82288093758566   -0.46146766895142    0.66179817797796
O           0.14525751354832    0.52297909945568   -2.45263102816630
H           0.46625886568753    1.10661907655819   -3.14232740451624
O          -1.18983248976516   -2.83975375295703   -0.92505530100760
H          -0.30414381338345   -2.49310472687115   -0.66119515535234
H          -1.29075054357369   -3.68627121944137   -0.48777353947025
O          -2.21254778035623    1.03377360578240   -1.54721787646015
H          -1.81362653743151    1.68677939707492   -0.86439086878942
H          -1.39502639384917    0.74630681361777   -2.06742019317690
H          -2.47791949099334    0.15266864845164   -0.87479750579438
O           1.02556967419906   -1.66115764692268   -0.01973556847049
H          -2.14083681255804   -1.62110010941499   -0.36040334439314
H           1.42311366645615   -1.14870312437489   -0.72867423709396
H           0.53583369698643   -1.00290486816553    0.52201542007753
N           2.54408642766986    0.36618438853579    2.18247044927047
H           3.48823838390793    0.38286083237189    2.54578917158102
H           2.57664954592782    0.41438414264891    1.16879293837596
H           2.11409042609152   -0.51361808713488    2.43802272688066
