    26
        -50.45054788  Gyration_radius:  2.51901492811 Dipole_moment: 7.510
 S          -1.25601444282345    0.23993069118836   -0.55090598441340
O          -1.02090728098689   -1.05445814411617    0.23723081841677
O          -0.24076973089230    0.44318462930952   -1.53854070508912
O          -1.37679313879514    1.32574733646904    0.40278888053581
O          -2.60446537078864   -0.00691460138329   -1.21819093726023
H          -3.24659624156320   -0.11971791652730   -0.42120498798845
H           0.11532377662210    1.77249685290339    0.96643726280965
O           1.02967619199393    1.87149252741659    1.31768310617658
H           0.99148910213832    2.55100258078237    1.99319749912681
O           3.02515463283518   -1.08824609960261   -0.52469957599354
H           3.96934608842173   -1.23862697774949   -0.57717520363791
O           0.85841354558563   -2.09852805702297   -2.14205562731996
H           0.39435741645835   -1.25456437133971   -2.11645884825292
H           1.66947479998752   -1.96336654176665   -1.63690138881969
O           1.19044959238033   -0.86502483591012    1.41313891169718
H           1.26922631719265    0.10042353690986    1.52279784746615
H          -0.10184808054816   -1.05922781814538    0.73168725264072
H           1.88287436635888   -1.11621455668352    0.76385353757139
O           2.30139058823531    1.37732460135023   -1.13301813859125
H           2.06375624458301    1.75169315534860   -0.27256731013852
H           2.86061939642681   -0.16140872155600   -0.83778871605108
H           1.45232074062140    1.14801272869385   -1.54293753335816
N          -3.78620531746171   -0.15306262305805    1.03778451414703
H          -4.74373616467359    0.06783058822187    1.27688864172947
H          -3.16683071556868    0.56766958763830    1.39261851357384
H          -3.52970631566759   -1.03744755135501    1.45633817104415
