    26
        -50.45054789  Gyration_radius:  2.51907826404 Dipole_moment: 7.509
 S           0.35855966513332    1.11269462802590   -0.75596292698047
O          -0.66839486212620    0.37507012938285   -1.42583868997710
O           1.45839824430908    0.18623078159143   -0.22326694398629
O          -0.12012316092498    1.91758106843376    0.35131876314599
O           1.10783196982780    1.99828347303428   -1.74542133640914
H           1.79729058796031    2.48381663435279   -1.15481557132465
H          -1.13563688549600    1.03322668978251    1.31591228664150
O          -1.62180990577042    0.38573914542570    1.87593222279259
H          -1.91814815420943    0.86362965335592    2.65267433470947
O          -1.03004933997774   -3.09030495388993   -0.04786078993506
H          -1.46346643327812   -3.93402960588102    0.08308713769625
O           0.48259198010138   -2.06876312417226   -2.28361651627561
H           0.10350092354684   -1.18820890932150   -2.18754527037736
H           0.07249414180827   -2.60381569527435   -1.59310220255565
O           0.41901722042316   -1.39198819879060    1.43122351287261
H          -0.33427393415681   -0.86455756862223    1.75484048274317
H           0.02534846648812   -2.12941946706058    0.91612547289220
H           1.09243717112631   -0.52000782129026    0.45239920207232
O          -2.69923075969211   -1.05677423906917   -0.27479598921497
H          -2.59323650143043   -0.59464284412200    0.56910738081728
H          -2.16722301975769   -0.54348633783678   -0.90331792458408
H          -1.74370668358891   -2.41591758816355   -0.18933307168581
N           2.56761328520357    2.97263312752336    0.10615847753659
H           1.77124205639495    2.93557350412254    0.73336308720155
H           3.00988208003917    3.88024122979392    0.16505194456749
H           3.22909183782836    2.25719628759111    0.37768290657783
