    26
        -50.45054784  Gyration_radius:  2.51921972909 Dipole_moment: 7.503
 S          -0.33625844536298   -0.68768496028072   -1.16250321430833
O          -0.67185328621177   -1.47089098835658   -0.01300264345465
O           1.06428636622773   -0.07557958816617   -1.03547918427097
O          -1.26895883008802    0.38887533361922   -1.43509309554204
O          -0.20891396844817   -1.57811741292121   -2.39341553043800
H           0.01463633546884   -0.91196710621866   -3.14616545463596
H          -1.60589055992600    1.22788657834515   -0.04726166289188
O          -1.63910675905657    1.72179680856905    0.80374325504931
H          -2.21114847591241    2.47772972393647    0.65952390559382
O           1.03548021619261   -0.22783419400195    3.08017558499638
H           1.18873807280998   -0.16266525582841    4.02313837707590
O           1.76354264404928   -2.28195791870445    1.18799758463959
H           0.92708503875378   -2.19848828608507    0.71713337668273
H           1.71628506947357   -1.64773868666858    1.91376774075090
O           1.08279691743518    1.42842662250325    0.97621193453319
H           0.14588445732207    1.69248187253227    1.02835454498617
H           1.24228052876769    0.85836848933156    1.75954458805740
H           1.15553608009752    0.54211688973331   -0.19951161740463
O          -1.50310310512887   -0.55780529672742    2.43178297011561
H           0.06999326022697   -0.41828907713244    2.95515343019361
H          -1.74590164431326    0.30415403502868    2.06423632839370
H          -1.34913096450600   -1.11980825325479    1.65597608222756
N           0.25977397027128    0.42779544678398   -3.89772888965867
H          -0.39215215803715    0.97587535199992   -3.34676433972981
H           0.06618867956456    0.55102435214870   -4.88264511368079
H           1.19991056033241    0.74229550977403   -3.69716896739244
