    26
        -50.44890744  Gyration_radius:  2.47793783666 Dipole_moment: 4.987
 S           1.79819677676021   -0.31184359137379    0.89950169671250
O           1.78871265213056    0.60102487286085   -0.21026132504236
O           1.72018410326183   -1.72074921344943    0.50018294221968
O           0.78449667908778   -0.01194399674156    1.90432011139831
O           3.19728715381923   -0.16204518143278    1.61420497154215
H           3.21348084384821   -0.93200503170726    2.17232275330152
H          -0.68488355065182   -0.31585318540351    1.50837579311041
O          -1.58945786523887   -0.64141526316977    1.21643449500756
H          -2.08171655700573   -0.81583493679900    2.02074098247787
O          -0.77652190277778   -1.80039601666584   -2.54520982481675
H          -1.68887990907307   -1.70674340973641   -2.82720618960964
O          -1.84591086838529    1.51294042145994   -0.62950397375292
H          -1.98404557713286    0.77259895747199   -0.02589117381969
H          -1.24371537161589    2.12003745361356   -0.14031359585230
O          -0.52456605564644   -2.51833813467993   -0.18051505384880
H          -0.63201218545028   -2.26927329652096   -1.22282856181181
H           0.46465053441984   -2.26630773811565    0.07834266015354
H          -1.07948432179512   -1.85633634509453    0.34463883008599
O           0.03218958203874    0.58821785524988   -2.28118486574647
H          -0.71159203769738    1.01862446466692   -1.79341911109309
H           0.78850649717720    0.62542616399005   -1.67092923820793
H          -0.38857272317587   -0.85209701953168   -2.52205121211488
N           0.11324971019681    2.71110336293202    0.81864940841367
H           0.46664050323507    3.65557509167828    0.72788405807426
H           0.81526073220989    2.07897878152688    0.43722588253395
H           0.04850315756402    2.49665493420912    1.80648953058306
