    26
        -50.44890821  Gyration_radius:  2.47766598341 Dipole_moment: 4.993
 S           1.19750111991245    0.98729054009404    1.31600364773457
O           1.59302975093288   -0.31035509165998    1.87323713798992
O          -0.21032650024873    1.25408227306661    1.42383713248661
O           1.71244159890994    1.13569588113996   -0.04041945553772
O           1.94432634023278    2.05986632286218    2.20068178363942
H           2.81227650772652    1.67812717977744    2.27537337125363
H           1.31263004308843    0.03484794931869   -1.05799504941652
O           1.10029925995253   -0.77088822295595   -1.61959372033101
H           1.78473844627948   -0.81591254465198   -2.28977572510341
O          -1.28463794254496   -2.80557859384411    0.89317211829958
H          -1.71528580948180   -3.27841699441857    0.17783487197787
O          -1.62171354354883    0.03411067650844   -1.85697032510583
H          -0.74854756342875   -0.36394039740035   -1.95983541162564
H          -1.44074595763323    0.99403878349761   -1.72838996681569
O           1.10505508377829   -2.28444177412673    0.45785284392550
H           1.10276702637778   -1.82321762657370   -0.44187421432404
H           1.33943845846663   -1.50784232097079    1.12954114141609
H           0.08846385996357   -2.56604141617527    0.67448730755409
O          -2.19884919725819   -0.44778724122497    0.70196114979467
H          -2.14308912753328   -0.27295007132751   -0.26878363540176
H          -1.70436036826367   -1.87118194676084    0.90775623643643
H          -1.59112052473635    0.19337642745773    1.10883847398841
N          -0.74186516302118    2.49561595621607   -1.12491589435225
H          -1.26429980901371    3.36267387707089   -1.10709780672646
H           0.18371990592564    2.69737972892609   -1.48348586361987
H          -0.61184590478122    2.19144863608103   -0.16144013815246
