    26
        -50.44890700  Gyration_radius:  2.47766732678 Dipole_moment: 4.930
 S           1.31532742768156   -1.54965674575084   -0.08221643085027
O           1.08413438511922   -0.84853275397744   -1.31520164486786
O           0.22249263189885   -2.45335159520925    0.29282735938519
O           1.64978657652104   -0.66714965990315    1.02934302653110
O           2.56326196188273   -2.48994957653110   -0.30556949481155
H           2.46607681090890   -3.11090339521010    0.40829042199568
H           0.49317406299255    0.19247761774935    1.60320770476098
O          -0.32897013500413    0.62783884564277    1.98312132509406
H          -0.13059741397185    0.81383410797032    2.90274942811441
O          -3.08471640594233   -0.55802974766702   -0.68955328934806
H          -3.66704213375472    0.17791889593541   -0.48958204047031
O          -0.48585464710728    2.40734431193956   -0.23627234940828
H          -0.56396245627021    1.96042569190141    0.61554288769279
H           0.47662677247827    2.37385012930613   -0.44425076652040
O          -1.78163025550943   -1.36676614387299    1.26455547319480
H          -2.39239729220961   -1.05914666184108    0.43233187270440
H          -0.98145504733326   -1.91189978214234    0.85119885899766
H          -1.33513525727231   -0.53699708047386    1.63144296817646
O          -1.17481442501442    0.50580472589710   -1.97399086082848
H          -0.37290445880072   -0.04103544283254   -1.91211708067938
H          -2.34813418105654   -0.18003621504163   -1.29345351627413
H          -0.97652633156458    1.31237739685480   -1.43882009156306
N           2.11609706809564    1.76695807978403   -0.67052702728733
H           2.62233125360610    1.60950663727976    0.19246588969622
H           2.75712083295857    2.17985433122321   -1.33659104100018
H           1.85771066660993    0.84526401896714   -1.01893157243567
