    26
        -50.44890710  Gyration_radius:  2.47775235988 Dipole_moment: 4.926
 S          -1.07989747972519    1.64795586869982    0.50737129789517
O          -1.32772566486305    1.10306699889344   -0.79915555506191
O           0.17483754599191    2.40195800017564    0.60032936303141
O          -1.15585779838269    0.65332326189881    1.57092369959432
O          -2.21423332013915    2.70696178036372    0.79552166709444
H          -1.82786018608098    3.21553756733035    1.50021868096640
H           0.01022700519612   -0.36672080036462    1.64817250912354
O           2.76023086807472    0.39590582573193   -1.58907255131872
H           3.28429026587114   -0.40428948953896   -1.66458066762842
O           0.85143928672134   -0.91438355044805    1.69487920883006
H           0.92837242151936   -1.20651525479580    2.60503824334612
O           0.09671325689945   -2.38509322691233   -0.62548004923937
H          -0.87147725347261   -2.24586242259531   -0.50670700751851
H           0.48867650217517   -2.06495889596503    0.19629395013782
O           0.43356997502088   -0.32868256526255   -2.28894859261424
H           1.83283318418977    0.16267805132321   -1.95772348428899
H           0.31660529866700   -1.18133156946774   -1.80348836204709
H          -0.23759420932407    0.26792403316610   -1.91543848585852
O           2.23643978235572    1.03522791264441    0.75337317049355
H           1.83021162135369    0.20225938194609    1.15786438233347
H           2.51639611130995    0.79471256858350   -0.25870618412605
H           1.41884192555909    1.69430122973969    0.67961752863684
N          -2.41482353531354   -1.48351765545833   -0.12821096055157
H          -3.27477621583399   -1.74838617278056   -0.59224358267213
H          -2.16812694686231   -0.54663173549910   -0.44296319127290
H          -2.60731246067934   -1.40543914154245    0.86311496275175
