    26
        -50.44890842  Gyration_radius:  2.47769558714 Dipole_moment: 4.983
 S          -0.17400761893370    1.66387176551299   -1.15861411645724
O           0.90351025214978    1.66778410452091   -0.20796046254292
O          -1.48943958487943    1.90163525533380   -0.55520154855783
O          -0.20607954856978    0.46712604557094   -1.99155123058876
O           0.05842118609045    2.88421942151104   -2.13186986595385
H          -0.79271552979581    2.96337339105937   -2.54886806332881
H          -0.66279444106068   -0.84491379369035   -1.30118830741926
O          -1.07118344976728   -1.62062913156443   -0.81003728010248
H          -1.44947902103715   -2.19127672603837   -1.48152573280389
O          -1.45152215276627   -0.04134244334132    2.86502366326172
H          -1.44690683046440   -0.90273361385697    3.28778302435005
O           1.29237933174872   -1.96323501662640    0.74180783074888
H           1.89595813781630   -1.56503748288681    0.07257881694654
H           0.45085743675955   -2.06088122972625    0.27945072761808
O          -2.50416623028927   -0.03236391009063    0.61490122761039
H          -2.14705366479356    0.84353981657806    0.15219757189760
H          -2.03197785322322   -0.77176278348619    0.11237103199788
H          -2.10602952120810   -0.02192660619191    1.61557898349336
O           0.95300712005245    0.28830783039568    2.13003919088282
H           1.00599055657758    0.92028331926390    1.39264502890860
H          -0.47413000657900    0.16893861948782    2.64102341891277
H           1.17854179542224   -0.58784552525704    1.73297514567571
N           2.52542119936194   -0.50675500560062   -1.18871994918010
H           2.14466467853969   -0.68565326069013   -2.11012126890417
H           3.51572793427704   -0.32313039298926   -1.29160869884113
H           2.08300581457706    0.35040734281273   -0.86110913755855
