    26
        -50.46691592  Gyration_radius:  2.45742791208 Dipole_moment: 2.732
 S          -1.33399415848851   -0.58687179506546   -1.27797085493230
O           0.07635002802259   -0.78580324951689   -1.55227819971508
O          -1.98803733893067    0.36741617935410   -2.12855502373012
O          -1.57767583742564   -0.39577987671955    0.14967818576190
O          -2.03463233138523   -2.00194044024387   -1.59439356243104
H          -2.46798191016955   -1.84503921320005   -2.42756781834140
H          -1.23581818955860    0.93350100368496    1.03273246280957
O           2.35226510225308    1.61773582866171   -0.65279289873737
H           2.83053510323921    2.37090463163559   -1.00141705855042
O          -0.95894957973252    1.75292563602749    1.50417040077677
H          -1.63452642374589    1.92920651800436    2.16036795843778
O          -0.84556336986318   -2.75200667298903    1.06923630655376
H          -1.13854474146640   -3.35272172098248    0.38088872991956
H          -1.25542413359679   -1.89096650384488    0.83900927517974
O           1.63537137305069    0.93320883383065    1.82712850258649
H           0.73178681766243    1.29811047337800    1.85598218605414
H           1.51095168442103   -0.48595376073724    1.20467234580448
H           2.03974001710584    1.32789245295624    1.02526144219199
O          -0.20933789928254    2.19072726661055   -1.20127501510476
H          -0.84071002624249    1.61027693443721   -1.65447390922305
H          -0.54781026967230    2.32309721522111   -0.30574081351264
H           1.42996094945777    1.71736387791386   -0.97847033862215
N           1.41716529726776   -1.36917110316236    0.59958995407047
H           0.99186629397867   -1.07186069753853   -0.32849589765880
H           0.72834159350210   -2.03740319001619    1.00204008853615
H           2.32467195961614   -1.79684862768288    0.45267352187733
