    26
        -50.46862852  Gyration_radius:  2.47490698794 Dipole_moment: 4.020
 S           0.47768268310447   -1.15066634833313   -1.86860172997269
O          -0.52114072154148   -0.15115679929653   -2.13206550051689
O           0.27192409000924   -1.76996640905079   -0.54822314665308
O           1.84812817103437   -0.71731546779347   -2.04562847804048
O           0.26430426669003   -2.32189943358395   -2.91993425684034
H           1.14290928956399   -2.68286614119488   -2.97297891676711
H           1.90408083727064    0.61941055799788   -1.15126545804941
O           1.94814604453724    1.37762945270725   -0.51826486241798
H           2.48799496323242    2.04669140856806   -0.94272799684727
O          -0.28606391215354    0.27577175060726    2.69997297648083
H          -0.14152435072677    0.21099439599012    3.64408109447286
O          -2.33178652650312    1.21990910225385   -0.73869064862104
H          -2.16452156875591    0.01227488928808    0.14467332192319
H          -1.80241799985142    0.86526464076660   -1.47739365802045
O          -0.36636783855153    2.30838502697488    0.69488365119489
H           0.43672196816637    2.04338805022457    0.21448371635775
H          -1.71825300570708    1.83353438967018   -0.27109527481696
H          -0.36609730791721    1.79103384521332    1.51144091114516
O           1.75653246654549   -0.62323082604938    1.37084055697753
H           0.54534715506151   -0.07319027722096    2.26012885679767
H           1.32557399718315   -1.17960451275650    0.69188864812347
H           2.08737042155597    0.14352975280998    0.87858854987442
N          -1.81427033851491   -0.83249950893443    0.74124545365050
H          -1.40392913954476   -0.46424473920802    1.62067191497558
H          -1.02779240565292   -1.27953390893373    0.18860460457961
H          -2.55255124855197   -1.50164289071715    0.92536567100453
