    26
        -50.46691592  Gyration_radius:  2.45750196456 Dipole_moment: 2.728
 S           0.76933620793790   -0.03473155068463   -1.77848351889274
O          -0.02333854257359   -1.15349749207317   -1.30540217554152
O           2.16717786362036   -0.31336718596613   -1.95302976575188
O           0.48206711100561    1.18052049646140   -1.02034042215701
O           0.20587741820991    0.29669868463145   -3.25021063816747
H           0.88148731479074   -0.05378873768368   -3.82235419131166
H           0.95524580958760    1.51563507547782    0.50508082404304
O           0.21688384242268   -2.15990924734401    1.96650566574451
H           0.66377031293460   -2.79164286778649    2.53100251379070
O           1.23974533193003    1.62371600325095    1.44198710587147
H           1.47715674696208    2.54587016496021    1.54835065500926
O          -2.03636892903085    1.56689050739667   -1.68499841010875
H          -2.06253489050513    1.29096149855768   -2.60350195851458
H          -1.08164529691327    1.59836079527280   -1.46161950696229
O           2.22573708848777   -0.92976796392374    0.68583176129278
H           2.30360806257590   -0.80971650578940   -0.27359196524600
H           2.15431855842475   -0.04614427889829    1.07090627380651
H           0.91061121131807   -1.80515678257957    1.36684093344301
O          -0.88425209447352    0.22273519219720    2.45883729038606
H          -1.64020416372124   -0.05440535225598    1.12882083269585
H          -0.48985132191412   -0.67430855387534    2.50501114316484
H          -0.14031705834157    0.81064784061545    2.23221545560106
N          -2.01692779607304   -0.37948200495152    0.17627179892031
H          -2.31039251671825    0.42581063243785   -0.41387372446946
H          -2.76297405544741   -1.05467949343125    0.30117637314543
H          -1.20421618448081   -0.81724889403721   -0.35143235977621
