    26
        -50.46691586  Gyration_radius:  2.4575660648 Dipole_moment: 2.736
 S           1.31101442549564   -1.42146286900737    0.12764467884533
O           1.98453512121084   -1.67251118588259    1.37078184723769
O           1.65682363515229   -0.16694339156042   -0.51312124618054
O          -0.13593078556018   -1.61752467997178    0.16980763181581
O           1.81820068967390   -2.57055649277827   -0.88055608163416
H           2.60638351302944   -2.89523412072039   -0.45629860611915
H          -1.20088491860375   -0.85053049977675    1.14058711200785
O           0.46926105890587    2.78995547086931    0.76120480304982
H           0.70968927556485    3.51298669770998    1.34171413535835
O          -1.78316691105355   -0.31355557116968    1.72609828131002
H          -2.47966184403397   -0.89913263266682    2.02619531099728
O          -0.66298909968872   -1.79451440168715   -2.40395537496154
H          -0.57890710930859   -1.86559378080895   -1.42915951857499
H           0.09826825808248   -2.26580312752573   -2.74878125266554
O           0.84516040017378    0.61257786387651    2.28034146917855
H          -0.07003368579388    0.31998391039731    2.38469559659009
H           1.36214303964048   -0.17168917115631    2.03814689044154
H           0.74781827228440    1.97164185907077    1.22960844880476
O          -1.89593657157106    1.81153836653970   -0.00013214857683
H          -1.06798478077533    1.20795793299961   -1.16945035457025
H          -2.00844322198024    1.09595501867176    0.65232270710997
H          -1.15182026924102    2.35014488481137    0.34427028167659
N          -0.33831822021111    0.82272827189092   -1.85801719864542
H           0.51989403553292    0.55460270465423   -1.29033918552800
H          -0.09983216237324    1.52319106807044   -2.55124442770406
H          -0.65528215458004   -0.06821213488633   -2.29236377925673
