    26
        -50.46691586  Gyration_radius:  2.4575910184 Dipole_moment: 2.733
 S           1.06165282235208   -0.80036716424235   -1.40999828059938
O           1.86978118934400    0.02667541185609   -2.26141027622485
O          -0.36976704730266   -0.63792949689737   -1.57896981634595
O           1.43875223062871   -0.77133654450339    0.00097679442968
O           1.37507343621640   -2.31656143344332   -1.85300637987901
H           1.77158594221281   -2.21085111969531   -2.71218477252241
H           1.49298191934374    0.53922561326769    0.97232993405514
O          -1.92674549653099    2.17501249215926   -0.37601353997686
H          -2.22834552475676    3.04419065753475   -0.64270445836649
O           1.45677103233030    1.36779969529222    1.50379913272496
H           2.19926962694797    1.33433541954604    2.10848496584050
O           0.22062353559647   -2.94144975933117    0.86112070025354
H           0.31341614240048   -3.54860459722267    0.12409912264227
H           0.81062597840757   -2.18950249643442    0.64005596159709
O           0.65356017807004    2.15491893007954   -1.10423922568146
H          -1.03225797114739    2.07345637783488   -0.77142395567907
H           1.07339858635952    2.14101806888754   -0.23376833168979
H           1.09273154559092    1.47253148333713   -1.63572977693480
O          -1.23139313399504    1.16898483425565    1.99800414798695
H          -1.49858115211854   -0.19309593851632    1.29745397021625
H          -0.26647462503971    1.30516282997768    1.97100334606069
H          -1.58091378470069    1.70264941972538    1.25271955534110
N          -1.66391698280187   -1.02986466295736    0.64371156089101
H          -2.65608668431120   -1.21688990904595    0.55048142503006
H          -1.13321774854579   -1.86903124882755    0.95533737932837
H          -1.24252402454288   -0.78047687258766   -0.30012919250129
