    26
        -50.43922922  Gyration_radius:  2.66091061865 Dipole_moment: 2.168
 S          -2.02787975463399   -0.81063772842014    1.62721657846230
O          -2.41828820543658   -0.08130744614055    0.47021369687721
O          -1.07905331993982   -0.19592678667617    2.50494431944818
O          -1.56307724110417   -2.22417903816988    1.25535393049317
O          -3.32521200834088   -1.11726359625320    2.46033827306661
H          -3.01806425524931   -1.35588098034782    3.33173200986444
H          -0.53423807056701   -2.30888677952681    1.24034947409931
O           1.37260502127587   -0.75505474909415   -0.78098951289419
H           1.95140228024402   -0.08432737168776   -1.21331131066555
O          -0.38963479097539    2.42991686237290   -1.14541950548829
H          -1.24164327909622    2.79667578494032   -0.90492244692637
O           0.93403592868886   -2.48088411864204    1.10875493818234
H           1.10855495514402   -3.34129780633968    0.71949659886647
H           1.20727698566090   -1.81317850016254    0.42733999256915
O          -0.96866636587919   -0.15098169307567   -1.85092028485744
H          -1.62602037675136   -0.25564460282580   -1.14699964088940
H          -0.77248235260008    0.80623484567012   -1.84934966469666
H           0.50643615412825   -0.65935257543169   -1.24891784088477
O           0.68311434801153    1.26652498974677    1.00649702093134
H           0.00605572876308    2.10059271759844   -0.30248097503726
H           0.07931575636208    0.87020861387822    1.65189795497381
H           1.07096173866183    0.52126890730842    0.51430221244642
N           2.47558109067909    1.45010562914034   -1.89074124997306
H           2.88920407649643    1.49192504933850   -2.81350214913173
H           3.08373187588086    1.94495201993141   -1.25011411449618
H           1.59598406056210    1.95639837285284   -1.92076829434079
