    26
        -50.43922913  Gyration_radius:  2.66132523288 Dipole_moment: 2.164
 S           0.24678886298906   -1.53337453891771    2.23759972885584
O           1.43588076483582   -0.88883249238252    1.79758790837710
O          -0.43648177332257   -2.36940066429777    1.29816483547197
O          -0.73060827978284   -0.52398590794625    2.85298772216886
O           0.61446099478357   -2.41355225253510    3.48715339263197
H          -0.11618856589495   -3.01722126538681    3.59812764276629
H          -1.49114273342213   -0.26602327946423    2.20432257164505
O          -1.05888751168769    1.27648557954710   -0.54308540483827
H          -0.88952288346677    1.51021376431825   -1.48563278368984
O           2.16346104973941   -0.05500342405615   -1.64273179054965
H           2.86873441987370   -0.59352671209040   -1.28108099165974
O          -2.55897642823659    0.22321713782351    1.29656032217333
H          -2.07342848436829    0.60709729717880    0.52110924702664
H          -3.00600740094032    0.96080039157673    1.71905834272218
O          -0.16886114091062   -1.27817722025611   -1.19762229582666
H           1.34009738096898   -0.59094547162471   -1.54031686182723
H          -0.25468680214035   -1.81310358486919   -0.39476401688179
H          -0.66116472117893   -0.45658235646833   -1.02186893259955
O           1.37446970578894    1.50189406959259    0.46669650738849
H          -0.20206404606532    1.47573236789334   -0.09090603060547
H           1.47211949733276    0.78243259923375    1.10814630085459
H           1.79127133556441    1.15207214120997   -0.34484179527134
N          -0.07481116147975    1.60498516074637   -3.03995825716134
H          -0.48608065633077    0.96985836028772   -3.71263161459765
H           0.83963257430160    1.23570996453397   -2.79833407009802
H           0.06199597299401    2.49923034636683   -3.49373968650991
