    26
        -50.45538176  Gyration_radius:  2.56584602503 Dipole_moment: 4.088
 S           0.93830793745462    0.04098613961289    0.46772437723920
O           1.46733525463518   -1.23330754838966    0.04715916981997
O           1.47342970281652    0.39263892503345    1.87312727434963
O           1.30587719917707    1.15158836457782   -0.40747880847938
O          -0.54011102636845   -0.01251386369196    0.58428151740699
O          -1.41934609403149    0.36099562746391   -3.07272825855441
H          -1.30446119011254    0.96040183534507   -3.81293817227479
O          -0.12550834404314    3.27684581416209   -0.75967935038519
H           0.54778807768880    2.55565434002062   -0.65017727927857
H          -0.04990965210862    3.83361842895721    0.01740891530811
O          -1.90159855069773    1.45816957795919   -0.83817898693885
H          -1.31485848173407    2.29682477759753   -0.84400111547547
H          -1.80066469849384    1.01909842969610   -1.76988421219675
H          -1.36398448513580    0.79441816596491   -0.17992870591724
O           1.00294699706046   -0.43563559755371   -2.50532798484086
H           1.13740122905563   -1.19258555326136   -1.91935785466013
H          -0.52485580769413   -0.04792939183278   -2.90732630897020
H           1.29014176627180    0.30946459367216   -1.94743981111065
O           1.72290184019153   -2.03092165119624    2.60196205121622
H           1.63612235901398   -0.50154636960738    2.31765040657878
H           0.76387201914699   -2.23897972072598    2.72678124132105
H           1.88693653991980   -2.19063020554240    1.66017535483431
N          -0.95561857454478   -2.20022909001215    2.42688891240057
H          -1.57886206499645   -1.92493444061426    3.17543645537188
H          -1.36444140779262   -3.00335529138401    1.96580471310147
H          -0.92884052469347   -1.43813629625851    1.75004647011314
