    26
        -50.43922922  Gyration_radius:  2.65922926134 Dipole_moment: 2.185
 S          -1.23025227868747   -1.36307763352150   -2.00705432663125
O           0.18214699558753   -1.24321595405182   -2.12363382218862
O          -1.98536377250540   -0.15512593345547   -1.86892116650591
O          -1.60834683475577   -2.35074153361701   -0.89622770359065
O          -1.75362209553360   -2.11422897004771   -3.28500892076317
H          -2.69317730258566   -1.94939667884877   -3.31125460901335
H          -1.90163051676567   -1.87394016573164   -0.02859004691224
O           2.11732299051873    1.49459656251656   -0.80467903879489
H           2.28012804617837    1.38874272203427   -1.74307073588293
O           0.00785551066329   -0.05824926227337    1.75062429910956
H           0.51718455471241    0.69547765404479    2.13037747690797
O          -2.24403954864422   -1.26142146438581    1.27873836646670
H          -2.30707544175968   -1.95859169451772    1.93627368747962
H          -1.44394412622805   -0.72792483091688    1.52356344894927
O           1.79176261093718   -1.07353689501528    0.08361474012796
H           2.14431226663931   -0.19178841696059   -0.14675259353808
H           0.67732216334300   -0.55393424446486    1.21737091403112
H           1.30568820664060   -1.34469827874701   -0.70933681408266
O          -0.52013633748095    1.62989494126852   -0.40097573974531
H          -1.09333521381644    1.13484608507186   -1.00473440613886
H          -0.50491367289494    1.11889005398035    0.42768917594133
H           1.14387843574231    1.63711086765240   -0.71784837297625
N           1.61247221569442    2.06684302537748    2.21926199137692
H           1.10045198530915    2.94032158638278    2.21983987306762
H           2.08267075834116    1.99571541054347    1.32216080494780
H           2.32264040133654    2.11743307769444    2.93857353837001
