    26
        -50.46110575  Gyration_radius:  2.50462719644 Dipole_moment: 1.920
 S          -0.93146829045906   -0.21288504328067    2.17887102454116
O           0.10271580603690   -1.16489842588287    2.52193552455904
O          -1.58072849517238   -0.53509381823359    0.91067629060434
O          -0.46239413763438    1.15997930851440    2.21843808058891
O          -2.06449953539931   -0.34656455404593    3.27459599145429
H          -1.56886152274852   -0.24420748758668    4.08025267753888
H           0.60474090048538    1.54173329132371    1.11064145310266
O           1.22393495888843    1.74985730094401    0.36081588154762
H           1.71102754139843    2.52992978818954    0.63150896972573
O          -0.88587014826507   -0.09097671999592   -2.84206306329502
H          -1.68061150035522   -0.25125417990663   -3.35126900485734
O           1.80760654883518    0.29623992778128   -2.08392196676079
H           1.06511399901873    0.38825688800062   -2.68834304862740
H           1.65697119821131    0.92151161008954   -1.36642792607293
O          -1.37387703662058    1.50835570513855   -0.82482801374048
H          -1.61844751104763    0.86325269379630   -0.13411439134800
H          -0.52611657206255    1.87226222958016   -0.53588203378474
H          -1.12770600399508    0.58513321442003   -2.15173100851923
O           2.00799882910189   -0.98938275548790    0.70193044479181
H           2.09245523970994   -0.03705463750989    0.55774627193540
H           1.43436864199391   -1.10136610579086    1.49096891637530
H           0.97269830430923   -1.44746641420690   -0.40851084889507
N           0.02096305229658   -1.71022384889909   -0.83204735946309
H          -0.04216479429878   -2.71342351934830   -0.96586272914458
H          -0.14745145095375   -1.19720723675822   -1.72361096703185
H          -0.69039802127471   -1.37450722084893   -0.12976914522051
