    26
        -50.46110568  Gyration_radius:  2.50473766957 Dipole_moment: 1.924
 S          -0.76805132690109   -1.84146337643536   -1.29661150090601
O          -1.33248396779896   -1.35548480707912   -0.04002542435040
O           0.50699945489886   -2.49830546159046   -1.10600429709615
O          -0.71555299309193   -0.80302827893827   -2.30910898862318
O          -1.78157948783841   -2.94056803358026   -1.81290729861902
H          -1.31441257471874   -3.30032505255052   -2.55952879197796
H           0.16398693593872    0.46038660375244   -1.93231607170024
O           0.67453563446832    1.25717841753866   -1.62668725661350
H           0.92166005074599    1.73152196925100   -2.42226330162001
O          -0.90155937067797    1.66101168723793    2.30143934039797
H          -1.62989848630534    1.71210979016696    2.92074077101155
O           1.58598945947701    2.03751952927897    1.01654097543944
H           0.83190083510258    2.34036122594339    1.53107665097053
H           1.28067833676712    1.95098665114955    0.10671028738079
O           2.22903894728144   -0.70389507793890   -0.21882225438794
H           1.73424327947404   -1.44899352844607   -0.62410010077416
H           2.03203633043791    0.07783681124376   -0.75246518275373
H           1.33745511309261   -0.50827034777384    1.07825863376610
O          -1.77479804666471    1.29487102593321   -0.14150023950721
H          -1.80317075866197    0.31988630441655   -0.18241907835695
H          -1.30927378274396    1.60831401946281    1.39414072424755
H          -1.05974081271347    1.54770517740479   -0.74108165955956
N           0.48989212041745   -0.62339801241949    1.72818294273760
H           0.15514864336125    0.30055964371215    2.07577241427776
H           0.71450555568503   -1.24692753059240    2.49570892259652
H          -0.26754906903657   -1.02958935914695    1.11726980402247
