    26
        -50.45538181  Gyration_radius:  2.56575443935 Dipole_moment: 4.089
 S          -0.54312455636255    0.03654031876185    0.89719693813019
O          -0.36497602872206    0.68611141852971    2.28701241172475
O          -1.58710798277941    0.79618752602378    0.21342130542024
O           0.74127903989563    0.22715713713353    0.17872040953415
O          -0.84520979625230   -1.36579531081033    1.04723596129170
O          -0.48948557068621   -0.31226458444414   -3.35374107658742
H          -1.11958506101716    0.03403055852548   -3.98889353614504
O          -1.16648353482965    2.91971100720845   -1.20179407302885
H          -0.98470446435232    3.65380903257420   -0.61219357162759
H          -1.46788683099008    2.16975068549484   -0.62541659070745
O           0.45412124156164   -1.44903335256112    3.39934857581905
H          -0.03164216166608   -0.06273380714191    2.88015669750862
H          -0.11379998768059   -1.88574795743049    2.74651503272649
H           1.35902832980195   -1.47646935810885    3.00063873979010
O           0.73934653913378    1.42093175528014   -1.96948191754489
H           0.81142532713571    0.89748461519808   -1.02941824199490
H           0.30398748898424    0.73022381335997   -2.60521559637727
H           0.02928278310836    2.13316495711359   -1.77916071621503
O          -1.97207756432645   -1.25279315336904   -1.41941756681781
H          -1.58115431520341   -1.82764399293424   -0.74774717699156
H          -2.12650635751732   -0.43017196784195   -0.92110611134033
H          -1.02828271104631   -0.78081868800063   -2.65744488102818
N           2.60513455307390   -1.27967610751776    1.79351719953166
H           3.41961004541489   -0.72104939933188    2.01523799467361
H           2.03445947018334   -0.74806617984081    1.13676816503726
H           2.92435211510152   -2.11283896586825    1.31526163517707
