    26
        -50.46110286  Gyration_radius:  2.50457588402 Dipole_moment: 1.902
 S          -2.22667458117751    0.07592717092767    0.83455247354043
O          -1.81519719258190   -0.10511312834470   -0.55519375947772
O          -1.99672211321504    1.42592758688100    1.30084632626558
O          -1.64671025047601   -0.92430777798208    1.71216145740175
O          -3.79072495439905   -0.16001860833022    0.84051241178280
H          -4.01226225211025    0.02382878631457    1.74721846242328
H          -0.06208876102505   -0.93712546749989    1.75765211405812
O           1.43604879562571   -0.70502256782831   -2.51178988445368
H           1.24314337367334   -0.98805564899327   -3.40578745894331
O           0.93089289475063   -0.94810119740259    1.70562969366136
H           1.23102164312821   -1.38175157043113    2.50619535244022
O           2.75587532585748    0.25554583048978   -0.20643470951280
H           2.27712270750348   -0.26464571567165    0.44825218904967
H           2.71832881192011   -0.23911330267679   -1.03046506713892
O           0.60543493880168    1.87114710524719    1.28464541133098
H          -0.36455548210329    1.82346718407987    1.43003220885807
H           0.97432404871886    1.04631206877671    1.62880974044112
H           0.61602936245040    1.66014666137029   -0.28636812121369
O           0.01821404476423   -2.05854190497838   -0.77300775524483
H           0.92968734893321   -1.31555147679616   -1.90935653115618
H           0.45022489169318   -1.96164772944413    0.08639534952357
H          -0.78142717575758   -1.50128685475045   -0.71596958573668
N           0.23363140861511    1.40910923336142   -1.25863121741296
H           0.87590359393195    0.75734670526294   -1.75769667403921
H           0.06645554757167    2.24957641338016   -1.80084312233290
H          -0.66597598509413    0.89194820503983   -1.07135931411936
