    26
        -50.46691590  Gyration_radius:  2.4575525774 Dipole_moment: 2.730
 S          -1.88701983739034    0.37392971799455   -0.23335103362092
O          -0.91208261525959    1.44055546011842   -0.35883742771800
O          -2.74947001000088    0.47272489293907    0.91049701419156
O          -1.26950889437771   -0.93702406483703   -0.41768002858908
O          -2.84937077805850    0.52125325223357   -1.51613911784476
H          -3.63991875798888    0.90346868840878   -1.14811370747694
H          -0.30441009128233   -1.72189132180536    0.63916598628145
O           0.30495425956120   -2.10933714147723    1.30910658423064
H           0.13800054088329   -3.05282907272521    1.31352573420294
O           1.81306464028803    1.52222138479907    1.72620324003916
H           2.12743138558118    1.91017077599985    2.54368289637153
O          -0.51556874162333   -0.75327097488894   -2.93396685782752
H          -1.22654585803328   -0.25080967959953   -3.33701629834195
H          -0.84969194758599   -0.98537647116977   -2.04133607944859
O          -0.50558968791799    0.37264805330434    2.42779075113234
H          -0.26914709154972   -0.55884285077634    2.32504011357585
H           0.89142358283836    1.23272607481762    1.90898461582782
H          -1.36076221352650    0.49302720054038    1.98598054011716
O           2.48845939849413   -0.70975751773422    0.42449551375618
H           2.43700821817524    0.07436707159376    1.01176419289951
H           1.81802184990759   -1.32604427663153    0.77248520365802
H           1.83044476285318    0.01118259861773   -0.78568846420581
N           1.28752344985098    0.62339351662634   -1.48237510026676
H           0.84483418130328    0.05102191118906   -2.23024345816212
H           1.88702018301027    1.34893003187052   -1.85957575753734
H           0.47090007183817    1.05356276058940   -0.95439907521625
