    26
        -50.46862861  Gyration_radius:  2.47491840091 Dipole_moment: 4.021
 S           1.28494849853915   -1.84183441743546    0.04724565828819
O           2.07234275599089   -0.68565944376358   -0.28327881192291
O          -0.04286285689670   -1.77784178059407   -0.58710915303957
O           1.18561724183596   -2.13830316924364    1.46134420677504
O           1.99988939329943   -3.10300428389421   -0.60131570345443
H           1.70712397973227   -3.79828285052024   -0.02170482845668
H           0.70172722540569   -0.73180305572072    2.07499297451127
O          -2.33769593413858    1.34482555294913   -0.41321466825427
H          -3.26536118156167    1.58085981235272   -0.42337514289307
O           0.30741414302547    0.10682786427985    2.41980951942075
H           0.72548357272665    0.26759217715495    3.26756747982161
O           1.65266876785578    1.73632199228846   -1.31121094421994
H           2.09341809948009    0.94456019213089   -0.94986559512117
H           0.46899146938255    0.99407711436469   -1.87025979853845
O           0.07762001120659    2.31661074972219    0.75825926791185
H           0.22826614927289    1.57647590163846    1.37093871387986
H           1.21534277412112    2.15020930152388   -0.53065962801958
H          -0.81404795018129    2.18899379886303    0.40719188845511
O          -1.91788120842105   -0.76424517233952    1.04352936738027
H          -1.32135492806065   -1.28775667477454    0.47230691844384
H          -1.34916288687647   -0.45525452168328    1.76528859897384
H          -2.25586666884679    0.53721513012301    0.17637044161955
N          -0.40461160589729    0.36630343664688   -2.05887833060202
H          -0.54837150128542    0.19965168587822   -3.04794050024757
H          -1.23149288839800    0.81711489002486   -1.62292099094030
H          -0.23214449130359   -0.54365422997757   -1.54311091977070
