    26
        -50.47039626  Gyration_radius:  2.41532342578 Dipole_moment: 4.724
 S           0.81337559826970   -1.31307352123807    1.31944925610067
O           1.56161254120868   -1.39419289007826    0.09011760954440
O          -0.57338938451886   -1.73361841970872    1.19820805662489
O           0.90036908405065    0.00673483815339    1.95045395789565
O           1.50068729568339   -2.32340995414014    2.32518192217108
H           0.91108558385271   -2.30619505514010    3.07115076483783
H          -0.63926047537264    0.58523372150556    2.09840032767807
O          -1.61647694800346    0.65367402299421    1.99552857708092
H          -1.88202263578905   -0.27367336816350    1.94475289836924
O           0.61140416770990    1.90502374232959   -1.58047158064168
H           0.91612358752945    2.71321045070727   -1.99457807788008
O           0.58478268094946   -0.86250614681245   -2.36177909940976
H           1.05121493033514   -1.17941696529454   -1.56606456880017
H           0.65388030267218    0.10125774306754   -2.33498008316453
O           2.41045059026355    1.15602063952713    0.13927239137627
H           2.66065590268283    0.28290658378600   -0.19093680487795
H           1.31197990631177    1.66113501593626   -0.90512579636844
H           1.90621561337870    0.93198279437988    0.94827306485642
O          -1.73095388936608   -1.33776803380376   -1.17246259180476
H          -1.88146848182179    0.13276353744128   -0.90824447309609
H          -0.95860652155408   -1.33537529209889   -1.78663240077603
H          -1.36752966874442   -1.65275080651969   -0.31740727686292
N          -1.81820877959559    1.17461964507246   -0.58354079821634
H          -1.77366686973986    1.12634760670918    0.47719129956518
H          -2.61877642206049    1.71185084505625   -0.89615401097298
H          -0.93347770837332    1.56921928636989   -0.95960255323479
