    26
        -50.47039605  Gyration_radius:  2.41536617465 Dipole_moment: 4.725
 S          -0.89268619539439   -1.72775857426666   -0.58826721578709
O          -0.27470764373388   -1.20911867621051   -1.79813441955175
O          -1.90626433125773   -0.86754032555445   -0.03073054009770
O           0.12820077748435   -2.10986059566604    0.39096481708879
O          -1.62608234930335   -3.06793478801349   -1.00099411062567
H          -0.94384008476894   -3.54376121906876   -1.46199519045836
H           1.58702895406183   -1.61059320852301   -0.19805072238913
O           0.21472022220413    1.57762935506820    1.99207758999523
H           0.37193568539634    1.99446220059595    2.84003163324802
O           2.25087204780370   -1.16478853230400   -0.77338487773141
H           1.82103955190922   -1.18823221801971   -1.63797368672726
O          -1.82740857043909    1.82386172077224   -0.01800232502800
H          -2.04627734146366    0.87363387534174   -0.03280634926373
H          -1.24842326423596    1.94368189399391    0.74668833651829
O          -0.82950979854375   -0.76215368962362    2.42802368801970
H          -0.15959819115521    0.66972531788364    2.19722896626186
H          -1.67606795181996   -0.69761949670481    1.96589691823573
H          -0.32844491223058   -1.37331422458215    1.84998063092359
O          -0.12900679617771    1.44583808696748   -2.01195114848970
H          -0.87654570038030    1.74478011733215   -1.44139049371537
H           1.01036207993965    1.51206904841838   -1.03588032721097
H          -0.25479027138699    0.47677991581939   -2.09881248587166
N           1.75469656180774    1.37325740024871   -0.24755396515343
H           2.09045040140836    0.37184041273443   -0.36447170677985
H           1.27105507824023    1.48246680471095    0.66575123665696
H           2.51929203205475    2.03264940864364   -0.33624425206371
