    26
        -50.47039612  Gyration_radius:  2.41531316068 Dipole_moment: 4.728
 S           1.01332382223272   -1.48939817341677    0.93955208675794
O          -0.30161121437276   -1.98028220863943    0.61092337334812
O           1.01499401920993   -0.39220595951907    1.89391455044367
O           1.80314005662478   -1.14508246572292   -0.24575615931683
O           1.77360942046215   -2.68944802016989    1.63686861245029
H           2.58485013476517   -2.28307621833163    1.92173465504123
H           2.22343502230180    0.44635633109877   -0.11298964828903
O          -1.37241314157563    0.49275286394873   -2.09166573596345
H          -1.71068724109272    0.61504442390066   -2.97942084906921
O           2.25643310644111    1.37001686944856    0.22757280217171
H           2.11436281539669    1.24388155143949    1.17456960826485
O          -2.51365078447077   -0.46397865062130    0.36797669962733
H          -2.36420487736672   -0.14169352791584   -0.53103076378182
H          -1.83553426699721   -1.14916177829467    0.51516729823536
O          -1.11139587316305    1.21808460986260    1.85378845043740
H          -1.81360703393682    0.63154668574520    1.48413677411439
H          -0.36092396019545    0.61630741134089    2.04643423052063
H          -0.63266919534510    1.90129203695951    0.60530594404615
O          -0.01419990831723   -1.72273960949556   -2.04735514565601
H          -0.83140075330381   -0.35169194040985   -2.11772431576010
H           0.81677095939849   -1.49986807474157   -1.57999680168036
H          -0.48727079649150   -2.23858292386094   -1.38068428588730
N          -0.18013755401296    2.20888837458555   -0.34101448639944
H           0.84950484559635    1.96530036125757   -0.24142527487883
H          -0.31123240120764    3.19911846888574   -0.51274589346225
H          -0.60948521058067    1.63861957269278   -1.09613572534411
