    26
        -50.47039616  Gyration_radius:  2.41530086483 Dipole_moment: 4.723
 S          -0.10079189424403    1.60656750813230   -1.23896568718970
O          -1.37292300051978    1.47537127545384   -0.57394999230482
O           0.22798940707803    0.49371411142346   -2.11542132151762
O           0.99983260478959    1.87558929609125   -0.30974693061281
O          -0.21317458777754    2.88538247868659   -2.16460516874639
H           0.60099813961555    2.85744053830399   -2.65524352028111
H           2.11149208298333    0.66959452778651   -0.49929665563688
O           2.52029658533000   -0.17382534817100   -0.80232042209715
H           2.12413774858491   -0.29089492350843   -1.67542754341061
O          -0.43315577310870   -0.71455597582570    2.40876371703228
H          -0.45561079872395   -0.82911835726201    3.35946814093615
O          -2.42067862181948   -0.83255658724001    0.33487355693391
H          -1.93193343664858   -0.89051082464366    1.16683601105942
H          -2.22461992046023    0.05385698810660   -0.02127141658433
O          -0.40299476647919    1.83555018544069    1.90684508892200
H          -0.39249871542189    0.27544229083455    2.25200787358897
H           0.29622109082222    1.94976174711613    1.23087665016312
H          -1.20828552371236    1.95260724705050    1.38540496972684
O          -0.74823834260305   -1.89007382449412   -1.42190653476514
H          -1.54380414301363   -1.64616866564306   -0.89133459301861
H          -0.46071215245418   -1.05010433058754   -1.83924249601520
H           0.27497476283459   -2.04785559649494   -0.33425653887507
N           1.02134295266378   -1.94285402408801    0.45745881257893
H           0.54974903796989   -1.52036669148313    1.28135755088315
H           1.74154792515014   -1.26762562924961    0.06395246028342
H           1.44083934907697   -2.83436743578890    0.69514398899320
