    26
        -50.45538171  Gyration_radius:  2.5658384156 Dipole_moment: 4.092
 S           0.89268795078128    0.20556883272378   -0.51176287972289
O           0.11276623036138    0.79095526689133   -1.59965432776335
O           0.10086708311081    0.27549689777124    0.74140967309132
O           1.33056644048811   -1.14457171167827   -0.76860494892395
O           2.11733677558565    1.12344405040585   -0.30481572994696
O          -3.20024313117100   -0.99061188137147   -0.59689135936095
H          -3.86678485325617   -0.79162556497242   -1.25756980057998
O          -1.71635860256846    2.59328870822866   -1.28943558867971
H          -0.98941621657489    1.96919512021242   -1.54909289282864
H          -1.29433756193095    3.43525127225257   -1.10895877900912
O          -2.24174376428360    1.01039209369448    0.63064025661943
H          -2.17045012990091    1.73155873563266   -0.09216520881567
H          -2.70795367473622    0.19674277823847    0.19294191675240
H          -1.21933703217626    0.68921551487047    0.75021897496340
O           3.59957454547619   -0.72836332882010    0.61228725255831
H           3.06961673494832   -1.29875172890804    0.03504500988184
H           2.83408569871954    0.51552312352455    0.06972700036292
H           3.17902296963417   -0.81601861258980    1.50339741601830
O          -1.06035537857733   -1.55151506623204   -1.98585101420854
H          -0.30332408597521   -1.97109951731669   -1.55534283642415
H          -2.40359804116110   -1.31972755824442   -1.09878472449547
H          -0.73125714716150   -0.64869617843321   -2.14539704359824
N           1.90907640246830   -0.83896746148886    2.70122055256758
H           1.18256167251215   -0.46108403407026    2.09375828234602
H           1.98273702647422   -0.23116124782172    3.50725787527544
H           1.59426008888623   -1.74443849254993    3.02642292391565
