    26
        -50.47039557  Gyration_radius:  2.41531990119 Dipole_moment: 4.735
 S           0.19541086156122    1.04820539342480   -1.72995900411763
O           1.24011459679952    1.46981162129045   -0.83071852897098
O          -1.14707553017804    1.35978265655838   -1.26605156674691
O           0.30027405057051   -0.36629571146977   -2.09836006537020
O           0.40741680584782    1.86338855566490   -3.06981167222855
H          -0.34672214186251    1.60686369928212   -3.58933450128938
H          -1.11081943655583   -1.10112606315400   -1.64814348929647
O          -1.99619818417855   -1.22518554085873   -1.23529157944293
H          -2.36727985146561   -0.33429100938678   -1.27907731820732
O           1.31564966988167   -1.43621439458868    1.64415565246000
H           1.84619070272559   -2.09771888086940    2.08959377165172
O           1.09197179393268    1.42250352063573    1.85738000176579
H           1.29567274535741    0.48729150628018    1.99258808830684
H           1.25967029301348    1.59162266746948    0.91167829069421
O          -1.51011379169232    1.41050262791019    1.37656078300222
H          -1.50459706478632   -0.08900535228433    1.45485499676456
H          -0.60406197078377    1.61487745843381    1.70997311372522
H          -1.45681399351242    1.55510623081126    0.40777366180913
O           2.41607159714106   -0.94099259152549   -0.65787261423758
H           1.74962065789139   -1.29128291027521    0.75136870006159
H           1.67564624290875   -0.95023656539140   -1.29864518450946
H           2.61403468734588    0.00267513525111   -0.59200217019019
N          -1.37868606352776   -1.16765616897318    1.32967828942588
H          -0.37450598115151   -1.38777325183173    1.48138175468498
H          -1.64409589299598   -1.35642574403707    0.31812728860028
H          -1.96677479236211   -1.68842689835088    1.97015331162124
