    26
        -50.45462905  Gyration_radius:  2.52344878472 Dipole_moment: 3.146
 S           0.01957271724767    1.36919756519959    2.16639283812924
O           0.22032072663624    2.10768808107906    0.93870451313239
O           0.96503845556456    0.26017131979620    2.29943783804470
O          -1.34532461653218    0.92178209070286    2.36580863071553
O           0.34524532122772    2.36337236069813    3.35009136070844
H           0.11579518422489    1.82622714607301    4.10033357123801
H          -1.64701608451257   -0.31775048021499    1.42134527679717
O          -1.84883377947059   -1.03485919547345    0.76286779236988
H          -2.61240268841311   -1.49997269602239    1.10820181302096
O           1.57010977756650    1.25272137492607   -1.19254338053015
H           1.36349737577865    1.84401782797717   -0.44398099971157
O           0.22767948551808   -2.25763739114838   -0.47525513216822
H          -0.53944953435986   -1.92579563671668    0.03256565489350
H           0.07885613480117   -1.95940319406057   -1.41488586005509
O           2.05058481635104   -0.75217068129363    0.29305804065512
H           1.67449981867232   -0.35979212322536    1.17574103415975
H           1.32120067550001   -1.47959060621385   -0.02009023395675
H           1.97994048830874    0.02500060192890   -0.38006088633066
O          -1.18378926910756    0.93137708950390   -1.08831913831811
H          -0.89720737292544    1.54549928570603   -0.39057880879499
H           0.68823400197492    1.05550209365853   -1.55138115734139
H          -1.61838835813666    0.21262188594486   -0.60595213657364
N          -0.17288602393191   -1.18321261797360   -2.89572535381106
H           0.67161291539313   -0.87054092063108   -3.35837327717293
H          -0.71005266546015   -0.36151687476925   -2.63313547120801
H          -0.71683752187161   -1.71293628549825   -3.56426651788927
