    26
        -50.47039532  Gyration_radius:  2.41542270087 Dipole_moment: 4.747
 S          -0.38591252813884   -1.92372188301252    0.52926347266158
O          -0.45528383660031   -1.11092802476876    1.71778612478439
O           0.93399570831651   -1.97260704775284   -0.07866951827947
O          -1.39994728295993   -1.56369467586630   -0.46568810157228
O          -0.72720977498451   -3.40118942831140    0.98203469591052
H          -0.59596891929940   -3.89852768965495    0.18213720798207
H          -0.60469202762523   -1.15830716661936   -1.85412584853348
O           0.13246997827733   -0.94388387769943   -2.47136454383086
H           0.85613740561374   -1.47777669851239   -2.11898240683638
O          -0.91393908267730    2.37049235377061    0.21767951560649
H          -1.43067627969835    3.17687390022996    0.20318365463257
O           0.89665240590750    1.18455316780987    2.11199059241605
H           0.31102787802212    1.77797065123958    1.62290445059532
H           0.42405476270383    0.33284346848975    2.15951181034932
O           2.46548015446533    0.18989693244775    0.22688399107033
H           1.68369892950485    0.95058787021670   -0.80522603295578
H           2.10725816548430    0.58620388416950    1.05651251992378
H           2.04738031461915   -0.69603046740772    0.17420622595117
O          -2.49632140182825    0.41297256051309    0.86589128859338
H          -1.55842598274308    1.63508450744533    0.44141457793929
H          -2.29553275185630   -0.29719943275959    0.22250944582182
H          -2.08422723468516    0.07553058318073    1.67257096745197
N           0.95093666390468    1.36911449256005   -1.49997945329558
H           1.37869874931784    2.02667425433192   -2.14177104907819
H           0.20725269098575    1.82678025396443   -0.93672744122072
H           0.55309329595279    0.52828750197339   -2.01394612609553
