    26
        -50.45538180  Gyration_radius:  2.56578080216 Dipole_moment: 4.083
 S           0.28900108073812   -0.90646618347154   -0.44105804156100
O          -0.26650028522745   -2.34612418799426   -0.50539498021655
O           0.06657576650294   -0.31525839689545   -1.75849356745268
O          -0.53693755791515   -0.18364317761140    0.55777231259133
O           1.67422602349995   -0.93360653451629   -0.04002201964310
O           0.26321409247403    3.35914967105725   -0.48761171528858
H           0.21091957149643    3.94615556077392   -1.24465566481905
O          -2.09957765317838    0.90582173467852   -2.46968907163291
H          -2.78745230343957    0.25461218494717   -2.61918622731402
H          -1.25678161879603    0.39542119683258   -2.34838214414355
O           1.93024766429935    1.49112366179565   -1.23321377739229
H           1.31688007677085    0.91617899001814   -1.72528242613207
H           0.97989996476260    2.69870618651037   -0.69918361481662
H           2.29894214824538    0.88307962275521   -0.57843583459662
O           1.30221512442076   -3.24404898516508    1.28332712327606
H           0.27662511075962   -2.86236793610925    0.17456046790897
H           1.90766829216489   -2.56514760532353    0.94875607419950
H           0.87028192263384   -2.82721006714278    2.06963543102188
O          -1.73972474804462    1.84491855226248   -0.13378411430434
H          -2.01600294500550    1.57605995222282   -1.08197766505155
H          -1.24611053980556    0.95867369400934    0.23202575058771
H          -0.97318970320667    2.53315747421381   -0.23190690583165
N           0.02285665322013   -1.61910029873425    3.00273053835957
H           0.57095215076214   -1.06118641457900    3.64547594955117
H          -0.83655042148864   -1.87443017330730    3.47261987173598
H          -0.22167786666461   -1.02446851119372    2.21137425093289
