    26
        -50.45462911  Gyration_radius:  2.52343498343 Dipole_moment: 3.147
 S          -2.50067847743131    0.39420082575054   -0.39908777190567
O          -2.07518745846598   -0.98525713521532   -0.30426293370462
O          -1.73901639459851    1.13437140738234   -1.40583480725454
O          -2.51021134565329    1.09423311665572    0.87092618149499
O          -3.99466849581535    0.37217391844575   -0.91203927841253
H          -4.21144308429159    1.29669391419969   -0.86418615693229
H          -1.02341257105316    1.44837377117946    1.29931768131929
O           0.21956319648920   -1.97696247446031   -1.22466726009290
H          -0.74977077256456   -1.89126825562667   -1.14859401850803
O          -0.08465048474818    1.58532190939134    1.59684473930993
H          -0.11620233667552    2.28837352243841    2.24752512633858
O           1.89126154502375    1.31898867137001   -0.23749319023488
H           1.20491085902569    1.53873710985459    0.42364805487861
H           2.35958856275806    0.51344473289814    0.11721661904678
O           0.53785912957566    0.38640028119224   -2.10248774006252
H           1.16756196553676    0.84836718347815   -1.36137949335777
H           0.49931590433581   -0.61331247436322   -1.85506795453703
H          -0.41603965508745    0.73670087212834   -1.89796310841310
O           0.02707533660383   -1.18860694457058    1.42851160343788
H           0.10515345923071   -0.26737136290214    1.71738290860919
H          -0.86078064770194   -1.23876376643297    1.03446891606970
H           0.50774117691443   -1.90928845125505   -0.29848655501543
N           2.89033577237008   -0.97887370980707    0.70862176735061
H           3.11910076868534   -1.65939944462334   -0.00520877138348
H           2.08237423476446   -1.32083202487824    1.22142633050263
H           3.67021982281933   -0.92644520220572    1.35086909133991
