    26
        -50.45462904  Gyration_radius:  2.52304377639 Dipole_moment: 3.152
 S          -1.86603264629275    0.19441926666896    1.74437061539160
O          -0.62126523995688   -0.17488105184630    2.41948850407785
O          -2.13904024900810   -0.65741847424564    0.60729565600041
O          -1.89574584638880    1.61135982191105    1.43723549774894
O          -3.02167670537840   -0.06447112466959    2.78993864673866
H          -2.80426976428039    0.57748174824377    3.45677527468431
H          -0.57219598339926    2.01695525590550    0.66058363649604
O           0.21752990773653    2.23835690830790    0.09858337457068
H           0.33362542017803    3.18688893122628    0.17235383682683
O          -0.37262435118958   -2.21970788428635   -0.62880400890707
H          -1.18454741367583   -2.00606801251998   -0.13062253549340
O           2.27014141453330    0.47185886217231    0.01510922114288
H           1.60761082597209    1.18491869554871    0.11036794667112
H           2.22098060450848    0.18329613447899   -0.93802796200402
O           1.17995468901031   -1.41284220965649    1.21408570738092
H           0.63841081344390   -1.85855103059662    0.45913697522100
H           1.73288675503170   -0.61459309638857    0.74796277076718
H           0.46460976842521   -0.93760406770254    1.79418365509469
O          -0.87589308809418    0.33089268401929   -1.60532064254542
H          -1.55739688897328    0.08457807279232   -0.95663204658431
H          -0.47569491632933    1.13138387983111   -1.23488571281077
H          -0.33436524727943   -1.50119025567088   -1.28242855662171
N           1.85762617361740   -0.36681904297250   -2.49454017513596
H           1.93951381663756   -1.36786697598821   -2.62112316858280
H           2.37913171318410    0.08490725021993   -3.23435099359961
H           0.87872642802981   -0.11528430487007   -2.60073550663969
