    26
        -50.45611344  Gyration_radius:  2.53550631606 Dipole_moment: 6.285
 S          -1.49495779252661    0.25851358274888   -1.58970386657507
O          -2.00840181720207   -0.61262682778331   -0.54615449160346
O          -0.52339879257625   -0.42517576386236   -2.43786152048193
O          -0.99217555104659    1.52485178154370   -1.09849619757325
O          -2.74376362100984    0.59577200723982   -2.50690111128967
H          -2.47002863211024    1.32159175287831   -3.06135149840458
H           0.63727606128750    1.20971220392566   -0.94971610634938
O           1.56918716791310    0.90182321500476   -0.93359098883954
H           1.79186423546949    0.72972833014601   -1.85045565245960
O           0.48713285325296   -0.09299996893547    2.66518949078672
H           0.39210981935181   -0.07046304544428    3.61763358782274
O           2.10128953184790    2.08429365675137    1.68226471374454
H           1.61594798291730    1.36429773203779    2.10583475770635
H           2.07064478369923    1.90175859883983    0.73792963424409
O           1.81701813374763   -1.27432351929275    0.64183469467230
H           0.76082258582821   -1.99463455303493   -0.12682466110695
H           1.91728622211157   -0.45892540145893    0.10515997420900
H           1.43522043765440   -0.96378652070101    1.48492470489360
O          -1.63963869124786    1.00198968412314    1.55314547797914
H          -1.94132605184011    0.35693005442802    0.88815512291079
H          -0.33608760778360    0.31463939377319    2.29060147941642
H          -1.32696226667986    1.74672324014513    1.02680518825699
N          -0.06410811122909   -2.33279985173310   -0.76231263707499
H          -0.03799169687710   -3.32744128071894   -0.95777299050009
H          -0.05614950464632   -1.73522470361564   -1.63433055371233
H          -0.96080967829974   -2.02422378702385   -0.34400653068262
