    26
        -50.45611343  Gyration_radius:  2.53595192889 Dipole_moment: 6.284
 S           0.89323461793437   -1.70075339162187   -1.06899364488033
O           2.15768918187008   -1.20845281558637   -0.53111320331360
O           0.30434054772289   -0.76206272420616   -2.00927981199287
O          -0.01389980221115   -2.12623422131441   -0.02306332146542
O           1.23271629679791   -2.99276202522778   -1.92315456929073
H           1.42108781369492   -3.68041599665689   -1.29012120651628
H           0.37538471416814   -1.07677780238045    1.21189613987613
O          -2.11409641026702    1.68228094367681    0.22615147287908
H          -2.95670652483646    2.12036572568473    0.10441718443651
O           0.71732249385621   -0.42114416597197    1.85734059608700
H           1.62866171126703   -0.67555478160519    2.01388123261775
O          -1.94573942432017    0.34432484562368    2.77433823160601
H          -1.06363535327993   -0.03413649757019    2.70560845120221
H          -2.07478526018365    0.86010121625381    1.96764711293514
O           0.46787928400038    2.08302300544016    0.88320107021033
H          -0.48281913752863    2.12608298020148    0.66567326289747
H           0.55931297611706    1.26140868908579    1.41180125299834
H           1.22657351263009    1.71660644355651   -0.34819626708497
O          -2.16580184675036   -0.65836549855579   -0.98991228844258
H          -1.36223160968812   -0.67861307359766   -1.54047316115373
H          -1.99995937714983   -1.32729402809251   -0.31572580893199
H          -2.17425974098592    0.81720565956062   -0.25554787867739
N           1.74233587167177    1.25047850067841   -1.19383154039900
H           2.38585630244987    1.87622206257181   -1.66554144135533
H           1.03826082605006    0.83510121169435   -1.83139772379863
H           2.20327833697506    0.36936574835943   -0.83560411044554
