    26
        -50.45614798  Gyration_radius:  2.4511999374 Dipole_moment: 3.890
 S           0.88404690540944    0.21478979934895   -1.63334414282303
O           0.64199832960788   -0.71150624329229   -0.55399075736157
O           2.22032336707092    0.25724959933067   -2.15123806860125
O           0.31551591274171    1.53585082564921   -1.33228945341251
O          -0.03256298014527   -0.34752671686679   -2.84537639711505
H           0.41031663303188   -0.01927640141698   -3.62271509812021
H          -0.88348609127735    1.39300338627987   -0.44878902752993
O          -1.70457728125542    1.14827885338574    0.11336802482569
H          -2.06401620202199    0.25988670915945   -0.35324675731917
O           1.73221788809434    0.63133234931631    2.47434400730867
H           2.03464271007428    1.29267826518080    3.09893773249097
O          -0.62656019676402   -2.27337440100829    1.13507833887513
H           0.00460652261942   -2.82637811020881    1.59874126363939
H          -0.10176466059154   -1.76457438643819    0.48048866117994
O           2.56791450016295    1.66148402818943    0.14140529794701
H           2.92846769680470    1.08724310232425   -0.54714217994187
H           1.76081504795407    2.01214541932288   -0.26100087983396
H           2.07742426184825    0.91204313046280    1.59842884799249
O          -0.87697322211083    0.18091318940487    2.26190942432124
H          -1.35246916754688    0.81925127581706    1.06192981686416
H          -0.90352161490935   -0.76595028544820    2.01387085169744
H           0.08247304039096    0.38242298927968    2.37713607339629
N          -2.29495017219517   -1.03708619640341   -1.03398384530481
H          -1.54380213061845   -1.04198093575324   -1.71792433889089
H          -3.17209348397498   -1.23249199572245   -1.49787775068350
H          -2.10398562247109   -1.76842724987220   -0.35671962363762
