    26
        -50.45538181  Gyration_radius:  2.56576104451 Dipole_moment: 4.087
 S          -1.03484592807888    0.02709732347437    0.16934956423128
O          -1.24309518922144   -0.65183464680753   -1.10743660403817
O           0.26699938481605    0.73842091402964    0.13076166913115
O          -2.12384850813330    1.11752260775683    0.27061250798349
O          -1.10939418306507   -0.84719252317535    1.31404623237406
O           2.39113221100830   -2.02964341179842   -1.32264936331681
H           2.45736657062620   -2.59697754154171   -2.09344325572734
O          -0.21936199056435    0.11046167209324   -3.35683255565082
H          -0.73247055224352   -0.23580714709749   -2.58072371070565
H          -0.69098011040613    0.88665986849521   -3.66450159911558
O           0.13576723439062   -2.72326456375347   -0.20170204688562
H          -0.47925295474177   -2.18784457780333   -0.73457600091516
H           1.59699001715482   -2.34995155401662   -0.81135163944336
H          -0.06599679850417   -2.43114922468632    0.69740116936581
O           1.76261548850272    0.38278393838861   -1.78666648479381
H           2.11164098975810   -0.57685143714577   -1.61924935654959
H           1.07479722412244    0.31742840420466   -2.54186047376878
H           1.15093505919998    0.58977261253006   -0.92302947269179
O          -2.16771744475721    1.11745240697418    2.81324109653675
H          -1.30921165512910    1.58387790249809    2.96811645159713
H          -2.27125786496224    1.24252637874046    1.26375960994062
H          -1.92451891777315    0.18430920842723    2.71561255354714
N           0.35263938429102    2.05020756018994    2.70445434851354
H           0.44259936397364    1.61159622959783    1.78840888457580
H           1.05208331928639    1.63870459954672    3.30961572995795
H           0.57638587045963    3.03169495080888    2.59864273588655
