    26
        -50.45614807  Gyration_radius:  2.45139052192 Dipole_moment: 3.887
 S          -0.11938750491947   -1.31636337368945   -1.32322827999543
O           0.61220191061378   -0.14255600208988   -0.91267025436307
O          -0.41051689475618   -1.43098180064020   -2.72238403888738
O          -1.27745619650729   -1.54881147464353   -0.44908801393305
O           0.88608364501256   -2.54189581971441   -0.98786976147664
H           0.60754507089937   -3.22315531645544   -1.59326453414248
H          -0.99779466733261   -1.03280542308893    0.92725737184399
O          -0.65919066396239   -0.67976327828553    1.82765443706962
H           0.36530585295267   -0.97384716595160    1.83580538305327
O          -1.53029223600373    2.59995764801805   -0.65124137003683
H          -2.35550097089930    3.08476774322910   -0.59750998039417
O           2.09341027972674    1.47725970657454    0.53120940427919
H           2.36076442075876    2.22916308458615   -0.00002830113967
H           1.60127720509937    0.88517526197542   -0.07699809147946
O          -0.37862385752345    1.79142586802747    1.60179516378746
H          -0.62443337881062    0.38144816441970    1.75875916120591
H           0.57132729517145    1.80803502977187    1.36502169671208
H          -0.84355154152212    2.11325644399680    0.79267872079278
O          -2.27146598854556    0.40845277686894   -2.01112808834854
H          -2.31093789210016   -0.28291644454117   -1.33515053936524
H          -1.71696732823253    1.81411184649400   -1.21059330648066
H          -1.69140656373311    0.02863238388097   -2.68418785015480
N           1.78372955713278   -1.32032515257139    1.57698885800857
H           2.28869832220895   -1.94190098476026    2.19457609004795
H           2.29385510001902   -0.44728392119188    1.49016294352840
H           1.72332702529504   -1.73907980023309    0.65343319989150
