    26
        -50.45614801  Gyration_radius:  2.45156207346 Dipole_moment: 3.886
 S           0.80423695914357   -1.68695758298126    0.09233390875852
O           2.00639720223383   -2.29570045905830    0.58194387697891
O           0.93630193253954   -0.36551086637698   -0.47155946056053
O          -0.32452256054340   -1.74973393469401    1.03112675849896
O           0.33365507561918   -2.60190217289248   -1.15931300630547
H           0.63134143776284   -3.47364029107433   -0.91515801280188
H          -1.38726541764953   -0.77631101952664    0.62951650164528
O          -2.04418826684867   -0.10548333365229    0.21894339604269
H          -1.92332998313645   -0.25576068642803   -0.82928573204062
O           1.06652699324716    2.03436777555897    2.06301484740879
H           0.98694178521776    2.40598092395472    2.94308038764129
O           0.40109984441691    1.80653853394049   -1.84867784206875
H           1.17963722185844    2.36461922471423   -1.88579081862102
H           0.68161564921441    0.99154090539455   -1.37982964875297
O           1.50919915248212   -0.55687047563240    2.60302413699358
H           2.14373499084901   -1.06692551386457    2.08258935762808
H           1.30871956509948    1.09094613979444    2.19122984949629
H           0.66373774571496   -0.98387207144285    2.40453310531383
O          -1.02488031581580    2.16448054246010    0.43054733233483
H          -1.65027267007709    0.86823628694950    0.38878858774460
H          -0.27513132305693    2.14206750448240    1.07218441239674
H          -0.59724677573460    2.21338079230998   -0.44891875670629
N          -1.48601540900607   -0.49746392797505   -2.22559322239088
H          -1.03103262102303    0.35082000045974   -2.54716543274014
H          -2.14056785937195   -0.81247161897661   -2.92923463997429
H          -0.76869236311038   -1.20437470544200   -2.09232987591546
