    26
        -50.45614798  Gyration_radius:  2.45133913775 Dipole_moment: 3.889
 S           1.31477222685951    0.11639878030459   -1.32479804899424
O           1.05810374743845   -0.32771867427922    0.02371166421210
O           2.57386672357746    0.76200603486442   -1.55608186570570
O           0.15959422095784    0.84274690195471   -1.86989055306305
O           1.36650014136328   -1.25510142234515   -2.18596805454151
H           1.91114153433837   -1.02230204210268   -2.93259478791902
H          -1.10733212440611    0.33155654877234   -1.25981902312313
O          -1.89203068645588   -0.13971208007253   -0.79911917308950
H          -1.58379253731016   -1.15979007703632   -0.77431577326447
O           0.00796127886407    2.34323421752000    2.00848733222863
H          -0.31472771278784    3.21932742413201    2.22591658492775
O           0.00330426282734   -1.63031551470686    2.04673797099446
H           0.53888234201547   -1.49615963780199    2.83049225588890
H           0.48009880298386   -1.17585072584356    1.31951280683298
O           1.23534278905383    2.78052262978147   -0.33771346073171
H           2.07027005979217    2.34024674911124   -0.54480684695026
H           0.62293151274008    2.41606623091456   -0.99231649449866
H           0.53972621501940    2.44905110297130    1.18919165184079
O          -1.75629356918349    0.39245267653263    1.63711084577554
H          -1.13959304009790    1.14877400191883    1.78555196367854
H          -1.88511290205163    0.15863423349672    0.22208945977349
H          -1.25588644587665   -0.39666810313632    1.92976202713463
N          -0.90266018128702   -2.47417628135799   -0.68901964987969
H          -1.30515507695182   -3.29764086255552   -1.11641091763405
H          -0.72905011404159   -2.65782786355266    0.29388819924772
H          -0.01086143738013   -2.26775423747566   -1.12959813310885
