    26
        -50.43955915  Gyration_radius:  2.49314087573 Dipole_moment: 5.225
 S          -2.01422062819588   -0.22594138314111   -0.20629282121587
O          -1.34947424028843   -0.26132453257481    1.06212416549928
O          -1.90679392445651   -1.50853186403250   -0.92539103336808
O          -1.58727070222759    0.86143361435411   -1.08057032419367
O          -3.54831915414433   -0.00769843462776    0.05295069028489
H          -3.88627557573718    0.13013937709012   -0.82591728695635
H          -0.09597589429081    0.84573772467952   -1.48430806921630
O           0.85171258626699    0.69062669200621   -1.78214895159634
H           0.94184993867086    1.16013825649953   -2.61408417062893
O           1.53192404023472   -2.62864059950207    0.48059346766359
H           1.04986584075441   -3.35265891280851    0.88480374466150
O           2.19685003599230    1.41784721122488    0.53534633782960
H           3.13542088817640    1.49825310368757    0.36022688942653
H           1.75800033122085    1.23141282952163   -0.31192339704807
O           1.12554891681940   -0.62191239660391    2.00631506317580
H           1.57410656585072    0.16411075680668    1.64397762652952
H           0.17672153900031   -0.47147888710886    1.83797446611872
H           1.44284514329210   -1.84192160388244    1.12206439591092
O           0.42002946522875   -1.86863807294335   -1.62075438243785
H           0.92031562443655   -2.23078117372327   -0.75206244012892
H          -0.62289907078998   -1.77825861503144   -1.35239251539093
H           0.72674553597591   -0.92439981584182   -1.76389323412371
N          -0.76685819021144    2.71476287463940    1.18453794263796
H          -1.14824382329180    2.24757202347260    0.36921225563241
H          -1.15546028376572    2.23360425293422    1.98739738077881
H           0.22985502547364    2.52654760488959    1.19221420015768
