    26
        -50.43955919  Gyration_radius:  2.49309438543 Dipole_moment: 5.231
 S           1.53402184651079    0.78696946196987    1.08506087044059
O           1.28214809091863    1.13894482354186   -0.28056355034206
O           2.25208224671564   -0.49512637499872    1.20444569163198
O           0.34475956649944    0.76160190645857    1.93017195666167
O           2.48973177513442    1.87176574373661    1.70005006558912
H           2.50010141642456    1.63587160617596    2.62190251172893
H          -0.74385333466985   -0.25482354294337    1.51991051023527
O           0.84209598922053   -2.19960144492442   -1.98399038996101
H           1.74529372545608   -2.18094391889284   -2.30627137944283
O          -1.34026387925664   -1.01653327661714    1.24593183164057
H          -1.85385141660015   -1.23679895701358    2.02592045925378
O          -2.44838516063950    0.06464930085783   -1.05910454143239
H          -2.13585471117568   -0.30716500589719   -0.21692425047702
H          -3.18436073535931   -0.47332310786313   -1.35408227165833
O           0.77831074990968   -2.33095568231952    0.50745675226656
H           0.80998694904618   -2.32821302964916   -0.55816286116172
H           1.48221860724834   -1.57826668441711    0.83201973692163
H          -0.11855074036057   -1.97024524596012    0.77530989117739
O          -0.05555228756599    0.15806760580192   -2.37695321646356
H           0.47715952709803    0.65196249081740   -1.72615123698268
H           0.44747271009873   -1.28696545073744   -2.20757655703165
H          -0.97258850733170    0.21996518425628   -2.05202566333452
N          -1.19197938519848    2.80402232601002    0.28627664909057
H          -0.46505686429037    3.15385337621410   -0.32718731630572
H          -1.75623410176669    2.17057585771339   -0.26989524509589
H          -0.71885205606884    2.24071205869214    0.98443156304895
