    26
        -50.43955925  Gyration_radius:  2.49301145688 Dipole_moment: 5.243
 S           1.70675432620111   -0.89148977449417   -0.66679454733419
O           0.62566814807900   -1.62323560634725   -0.07691656970555
O           2.56544190897062   -0.25475311228686    0.34850997894293
O           1.29500436061058    0.10331014205842   -1.65168765342826
O           2.62811495368756   -1.91128039171948   -1.42800731125044
H           3.23243960652128   -1.33709283546560   -1.88708066821248
H           0.38432329977651    1.23317015899068   -1.12194800975838
O          -0.10757208706786    1.98251574859079   -0.66644286611336
H           0.00426011896923    2.74827530841000   -1.23369484499982
O          -0.15061523799664    0.33169860387457    3.05662311355180
H           0.35282279924289   -0.28413374760830    3.59260462060346
O          -2.55348302442736    0.73924010319309   -0.24083133339423
H          -1.73600286293622    1.22405935976298   -0.44547563899020
H          -3.20638482023041    1.38316665891850    0.03693948707381
O           1.32800855511289    1.55192189327966    1.45851861304546
H           1.93629451979713    0.77714313459747    1.01404841995736
H           0.72846773767521    1.85972067321932    0.71554995231083
H           0.70875468423578    1.06754925435224    2.17834061920585
O          -1.50574707673854   -1.12751818722228    1.45864277303661
H          -2.03250575842211   -0.56348427979646    0.86295792304545
H          -0.78688981490111   -1.48117212989190    0.90234467345381
H          -0.75496349884935   -0.24028505976155    2.46834052059241
N          -1.25555714869869   -1.34731823337693   -2.44284191921513
H          -0.36623473061972   -0.86520190756684   -2.37065492520227
H          -1.12320629300584   -2.24343102120904   -1.98830100334141
H          -1.91719267497458   -0.83137472252110   -1.87274345387246
