    26
        -50.43955920  Gyration_radius:  2.49307357319 Dipole_moment: 5.238
 S          -0.87577746296885    1.21941698382984   -1.37769183613293
O           0.19965033186091    0.32887551093833   -1.69773346792761
O          -0.39817989250268    2.46103876619743   -0.74216715172200
O          -1.92741512073315    0.62514042718392   -0.55920821067146
O          -1.55900827447942    1.66183239205141   -2.72140894306905
H          -2.32482176327700    2.13591439368812   -2.41424939238039
H          -1.48809683408870    0.12545511865976    0.83500039849023
O           2.72851411178738    0.99281458332899    1.02534470296375
H           3.23622760301530    1.56477862433392    0.44650706690943
O          -1.13645977047326   -0.06543921380707    1.75745346207264
H          -1.90374666789686   -0.05888676483526    2.33356085741026
O           0.35473928028828   -2.34566833040860    1.22221176270248
H           0.62088048620503   -2.76556651985283    2.04128472844895
H          -0.21991902439218   -1.59623102390374    1.45301970852547
O           0.47560438403382    1.95812118794070    1.49636762222473
H           0.10576976511320    2.25681496463977    0.52584284113675
H          -0.10262316303258    1.18164149857447    1.75889348133271
H           1.45738880701660    1.57544825813615    1.33554710290102
O           2.10863101573927   -1.02717638518786   -0.40810489956693
H           1.56933573967103   -1.64936006096917    0.11377925580613
H           1.48294634000302   -0.60860705598491   -1.02831539267638
H           2.54262077120501    0.14690594266191    0.48840756958225
N          -1.45091965401825   -2.21345703753075   -1.53505786420132
H          -0.87599472790417   -2.55126364587322   -0.77066656093394
H          -1.79463519433244   -1.29895145430414   -1.26289681169160
H          -0.82471106585487   -2.05359117950988   -2.31572003953269
