    26
        -50.43955924  Gyration_radius:  2.49319738081 Dipole_moment: 5.227
 S          -0.90011805730402   -0.14766441291904   -1.82147395743622
O          -0.55161241881198    1.10582789930131   -1.22204989197744
O          -2.15790607134261   -0.69214479051916   -1.27810674494506
O           0.14453720940994   -1.16352925229839   -1.74600809628734
O          -1.16596928670401    0.09978510016498   -3.35000471392435
H          -1.26120231726160   -0.78518779364637   -3.68668544007141
H           0.56794069729918   -1.58186305033647   -0.32008011247785
O           0.69550686446712   -1.86922168252602    0.63489093324736
H           1.05690514729611   -2.75705219545369    0.59223948025558
O          -1.89346043267915    0.80392406907886    2.29234239511709
H          -2.67667616661805    1.30752454808583    2.06227295795532
O           2.11863842215490    0.31356283787626    1.59347172166862
H           2.47682054343635    0.11807566187970    2.46040613131491
H           1.68991951302734   -0.49566537057149    1.26700011877727
O          -1.82029198284492   -1.36476107771347    1.05849911901555
H          -1.88229389250037   -0.46280384410589    1.62236357582406
H          -2.04352969265289   -1.09661085573867    0.03509873255500
H          -0.85469242523012   -1.63582015400671    1.04385970627475
O           0.04833057784888    2.05558203517355    1.20408044339022
H          -1.10365533553165    1.33641193515114    1.93081776379112
H           0.88435101170690    1.58642532819741    1.38098727645406
H          -0.14505582464951    1.88187933008358    0.26406723066022
N           2.44043793537923    0.82529972434950   -1.65160893396948
H           2.59484567645304    0.84377470348712   -0.64921049931474
H           1.77227650909537    0.08419072187739   -1.83274874435922
H           1.96595380654681    1.69006058515465   -1.88442046155708
