    26
        -50.43955924  Gyration_radius:  2.49322064292 Dipole_moment: 5.227
 S          -0.32091486191794   -2.01032723078111    0.07194366460470
O          -0.62409920872784   -2.02065366257616    1.51472915813430
O           0.96076869286974   -1.43397083244783   -0.20580103691714
O          -1.42795525472010   -1.39813693541369   -0.65517155291019
O          -0.28337956060299   -3.51804681319751   -0.36816750215425
H          -1.19237164242647   -3.78214512583871   -0.27027481554765
H          -1.66723612778551    0.10136612183756   -0.36922605291166
O          -1.81648349135220    1.03850561372906   -0.03709847098166
H          -2.73615052555960    1.23682794146622   -0.22564239534848
O           1.36293742556415    1.16019603009787    2.50696523709931
H           1.91244436192647    0.56850917636548    3.02457887445716
O           0.30756039406928    2.32028160421117   -1.28384151695328
H           0.20748556739927    3.27040656733581   -1.21086522589667
H          -0.48691416540423    1.91399158563015   -0.89788719152766
O          -0.96375678835430    0.28037199431012    2.29981829118462
H          -0.83230350677773   -0.75771011827686    2.02783335608541
H           0.01546502421441    0.67821492409760    2.43528620283839
H          -1.34422744527850    0.71086544921248    1.47762713062108
O           2.19691182204996    0.91606670100674    0.10568963547944
H           1.66685162831355    1.47988507518491   -0.48718125820675
H           1.73771174321219    1.13148615243821    1.55998282557202
H           1.90388866522557    0.00514751051348   -0.08296376299245
N           0.26931375630081   -0.49403935244383   -3.00823532040655
H          -0.40740329220747   -0.88040343647133   -2.35919313144164
H           0.42468117972269    0.46969678163282   -2.73241221721137
H           1.13717565023852   -0.98638571161825   -2.83049289465255
