    26
        -50.43955926  Gyration_radius:  2.49310455068 Dipole_moment: 5.237
 S           0.34827429999656    0.13529758536564   -2.00265447230199
O           0.56331251438950    1.59363376869863   -1.97642529829898
O          -0.92409088201040   -0.23235169010215   -1.45680750649864
O           1.48646763238290   -0.53720501191843   -1.38515276060910
O           0.36425993672854   -0.27251723600425   -3.51976925164574
H           1.27017819794082   -0.11376182551917   -3.76422326402920
H           1.68483083679365   -0.26905172850321    0.12333577715876
O           1.79923191370219    0.05116650191218    1.06954531582780
H           2.72568110057757   -0.08504168917187    1.27885737853701
O          -1.53171680198606    2.39302754755525    1.18887420613138
H          -2.10186359129799    2.88934511163169    0.59847120416300
O          -0.26534901330190   -1.35137883639145    2.28612265767338
H          -0.18548023447584   -1.29573210851188    3.23931305224561
H           0.51092349109596   -0.90887700522494    1.90301088494108
O           0.81716510211045    2.34772717951267    0.34613531046728
H          -0.17506063017334    2.41439116949356    0.72960717569929
H           1.24035702168232    1.54094075748288    0.76592165148149
H           0.71947403056757    2.09112716985799   -0.69910849862647
O          -2.21264536047984   -0.04822954558091    0.87823597383991
H          -1.65652539188227   -0.62022896955985    1.43848379791337
H          -1.84717209492201    1.42571793681113    1.13305677396518
H          -1.89417138269501   -0.19850303785168   -0.03133472867767
N          -0.08106375532389   -3.00701014619547   -0.56153110655124
H          -0.94946588628654   -2.86886338936891   -1.06546248155474
H           0.56274827092510   -2.31099458247378   -0.92151269466033
H          -0.26829932407024   -2.76262794596815    0.40501091340612
