    26
        -50.45462903  Gyration_radius:  2.52323399987 Dipole_moment: 3.151
 S           2.08802306779090   -0.95476439585229    1.13670269109485
O           2.29260258911749   -0.29376043013139   -0.13395560250610
O           1.07408888159104   -2.00634681328737    1.05028799398350
O           1.81017704626810   -0.04652330073731    2.23246086513263
O           3.44383971670858   -1.68495204333570    1.48890075273136
H           3.24350229295763   -2.02206906660438    2.35508713896610
H           0.31925164048131    0.48628838034743    2.12042734212255
O           0.63907546392451   -0.37704035594750   -2.21668605325669
H           1.47412824572537   -0.50557933930085   -1.72708345792011
O          -0.58538796858732    0.87756359615350    1.98974510670520
H          -0.85272081557894    1.21073137029853    2.84777241815765
O          -2.27403128529313   -0.35182844368489    0.26516442790504
H          -1.74032827742699    0.05152395153082    0.97876104678784
H          -2.35035986577458    0.34656099059517   -0.44249999007866
O           0.49442821168371    1.74396728222110   -0.42328631616269
H           1.31429183087892    1.24042729127110   -0.28115110029327
H           0.35289608969644    0.50081349578313   -1.91381693207249
H           0.03581439078435    1.69300634286865    0.42819279434255
O          -0.67263421300290   -1.96937763348542   -0.73254537391487
H          -0.20716063227065   -1.39261281892162   -1.44816441832284
H           0.04175186603165   -2.07883482421064    0.00989891108728
H          -1.43169806645201   -1.34144222701551   -0.29575607711569
N          -2.18706776063389    1.52058406412813   -1.64687636344302
H          -2.90559854851342    2.23271371472078   -1.64217656518965
H          -2.11352624266183    1.15752066172264   -2.58907935790607
H          -1.30335766769626    1.96343056101649   -1.41032383115646
