    26
        -50.45462833  Gyration_radius:  2.52348232022 Dipole_moment: 3.151
 S           2.30728690930877    0.12720926665453    1.10638489509203
O           2.01695042585861   -1.07598697719223    0.35709729983127
O           1.28393140478677    0.40531843542451    2.11475563581248
O           2.55567649295714    1.28965815057530    0.27604407148422
O           3.64127150538701   -0.15029036149592    1.90570762574102
H           3.78648845544425    0.69884952155689    2.30811260244819
H           1.18350107735712    1.82599538573511   -0.31514312208599
O           0.32976283880818    2.09877155122716   -0.74540229242455
H           0.45428305844318    3.00846154779194   -1.02032323142145
O          -0.33940913918183   -2.30223443243830    0.23494782784505
H           0.61328061793689   -2.19906851921415    0.42419334174982
O          -1.98564585292692    1.15368210048402    0.29484997561592
H          -1.18411149791730    1.60635200511441   -0.03597389828203
H          -2.30092794245531    0.57951267989271   -0.45693163977384
O           0.38368754581987   -0.49377525878080   -1.75571483831121
H          -0.42883386902600   -1.86685340325368   -0.62884574423473
H           0.31010423959224    0.46682948152029   -1.65740109957724
H           1.15743748745464   -0.72853426291887   -1.21528552167242
O          -1.03145963644427   -0.49919156550004    1.88663041544055
H          -0.86245910391550   -1.31057753058199    1.27462117489424
H          -0.08494706431205   -0.12197617746224    2.07500596880932
H          -1.50700902034641    0.24355139491280    1.26735636312165
N          -2.57018142985222   -0.51675984690843   -1.71442014365466
H          -3.17271189003394   -0.17197493044753   -2.45022413824671
H          -2.91629780338310   -1.42356417578611   -1.42682749477294
H          -1.63966779911946   -0.64340407858440   -2.10321400374698
