    26
        -50.46656051  Gyration_radius:  2.45794872855 Dipole_moment: 4.201
 S           0.93962511617448    0.38963092665098   -1.86848364324531
O           0.63492340529161    1.23527081960852   -0.72429341427622
O          -0.22281669787310   -0.30657845115925   -2.38359428845786
O           2.06202122366013   -0.49623276066871   -1.62466117643934
O           1.40006991819034    1.39020368142401   -3.00961861686582
H           1.60379950154573    0.79603514730976   -3.72401262297397
H           2.02070298420287   -1.35940971531534   -0.29124501077673
O           1.89433563695322   -1.85594931439789    0.56142167003680
H           2.56429104971508   -2.54123581668853    0.57019209668222
O          -1.96503925802530    1.40616205312643   -1.17169762147949
H          -1.02648309235322    1.55767983955039   -0.94589850287591
O          -2.41572816744918   -0.26488702422245    0.81661662732163
H          -2.42722180853047    0.40076852983141    0.08042471892096
H          -1.88535083112127   -1.01640984850121    0.44547153175849
O           1.50446534043805    0.58927817801647    1.66234236609144
H           0.09904195181714    0.70622448069119    2.23512577199524
H           1.73964603282517   -0.34144419953531    1.49456535538053
H           1.32308836580919    0.95037835122558    0.76497183118764
O          -0.74757590949730   -1.94059832040348   -0.32495431626552
H          -1.90345093065736    0.80056948402649   -1.92100564945756
H          -0.58733397944210   -1.45262649122010   -1.15565806712280
H           0.12071491289585   -2.06157608648624    0.08732923111904
N          -0.92564989779200    0.83306163390594    2.56051378447751
H          -1.05937749336864    0.42731081104184    3.48036057962141
H          -1.59975499589445    0.32969618004466    1.80535887602422
H          -1.14094235752786    1.82467790213913    2.58042848958825
