    26
        -50.46656046  Gyration_radius:  2.45804962138 Dipole_moment: 4.202
 S          -0.66572619832528   -1.55495642175083    1.29066017814142
O          -1.15865783498379   -0.43882024404928    2.07317665576296
O           0.61449202582873   -1.28234189025059    0.65507961892062
O          -1.65304441867728   -2.06754045730253    0.35984380478044
O          -0.37309474497739   -2.72491879819103    2.32060394309222
H          -1.23346315481775   -2.87888066717552    2.69606313034459
H          -1.86296140067056   -1.25363466730308   -0.98870472106501
O          -1.92106146869789   -0.66998515168555   -1.79215833484457
H          -2.70292255424377   -0.95302298483315   -2.26874202980007
O           1.30497859543954    0.72227989352335    2.23441760327702
H           1.26630173435804   -0.06956233611988    1.66316191280893
O           0.76220043643795    2.42921936141606    0.30020408454258
H           1.05370887068175    1.92967214074400    1.10683764601890
H          -0.18930443328719    2.17006772657888    0.19461432770610
O           0.76427345732227   -1.00087657621011   -1.94615547550319
H           1.48228562125078    0.33181831637121   -1.78834979641569
H           0.77120110220470   -1.27941263616276   -1.00221648216444
H          -0.18118934297923   -0.86981124642320   -2.14237788435632
O          -1.61876094945040    1.33687776538968    0.11905761657770
H          -1.56865522364173    0.73510692488135    0.88663807828115
H           0.46039613415453    0.68438438875945    2.70037906937010
H          -1.79935297170226    0.77657089380048   -0.65040145834141
N           2.00519632394312    1.25743904909473   -1.58379258904393
H           2.05160384863387    1.83125065947570   -2.41882937224879
H           2.94067968072823    1.03821769117986   -1.25689728604527
H           1.45087688548068    1.80085924625191   -0.76211222978257
