    26
        -50.46656022  Gyration_radius:  2.45855665764 Dipole_moment: 4.222
 S           0.45384492042248    1.05093113504635    1.79601617443059
O          -0.74122638100860    0.98817419595162    0.96833451305959
O           1.63918547102215    1.42808523025177    1.05173503247042
O           0.64686488512129   -0.14811847929830    2.58904364102325
O           0.18173484322145    2.22750708459323    2.82400326212504
H           0.97477449739744    2.21878867359735    3.34928365680851
H           0.57265212852593   -1.53771660317905    1.82241333069594
O           0.18932805227844    2.48548375782223   -1.00208239556091
H          -0.34672062300817    2.04049913496240   -0.31702111122057
O           0.51393185720437   -2.34861165430546    1.24907984857210
H           0.82272450772339   -3.07745473218969    1.78941093088760
O           0.50156894683976    0.33291413923219   -2.49155918403614
H           0.40433617553174    1.23517612941183   -2.08947219567965
H           1.12014161457837   -0.13443765965935   -1.87297531232258
O          -1.85414974282190   -1.32154270403371    0.42566090790779
H          -1.82232419559876   -1.02484550549155   -1.06628134838736
H          -1.12041792313540   -1.90961656846868    0.68175993715275
H          -1.57215215049326   -0.43814373136181    0.75549924910175
O           1.90308952517500   -0.71592167531697   -0.53425531767540
H           1.94413747274915    0.06117970709043    0.05593459398131
H           1.49317024637869   -1.42500888307162   -0.01690183923364
H           1.05435558176873    2.55192961307905   -0.57858503609643
N          -1.77864509333489   -0.72502129163720   -2.10577981516078
H          -1.92989470247717   -1.52370165514870   -2.71241823385912
H          -0.76150476962939   -0.27114068729591   -2.29827823737147
H          -2.48880513442781   -0.01938697057160   -2.27256507160400
