    26
        -50.46656040  Gyration_radius:  2.45779985482 Dipole_moment: 4.193
 S          -2.03723636475670    0.57312691530950   -0.21122229397814
O          -1.73485656568336    1.38001249998683    0.95445140026118
O          -1.37556493778892   -0.72264798894492   -0.19309058403059
O          -1.83150159961569    1.28725119064061   -1.45690983948362
O          -3.58710961294641    0.24553106179814   -0.13470722872404
H          -3.97507402892434    1.11361333098725   -0.16376689874330
H          -0.33416833236521    1.42112774849963   -1.97138959001808
O           0.63361534173913    1.45323753611460   -2.19949506468126
H           0.71503545084420    2.08106120786509   -2.91903528551354
O          -0.90386538058931   -0.77325184007686    2.40764918127269
H          -1.11798366514126   -0.97247023947273    1.47527225538579
O           1.63994018098974   -0.25095664377440    1.95427266914572
H           0.73974695102398   -0.49297370835023    2.29517970442477
H           1.48936852953372    0.60835205807184    1.48238066852431
O           0.87591917222829    1.83307748473600    0.55171673772673
H           0.96255950816742    1.78272860711524   -0.41187641812864
H          -0.08185922875191    1.79934520426033    0.73976956805494
H          -1.26544988667216    0.11490680980811    2.51882159516763
O           0.56494188259466   -1.23654913438175   -1.87860201524167
H           0.76636062661427   -0.32695850610062   -2.16461332567811
H           1.47545865105484   -1.66814078806994   -0.73729098278576
H          -0.26973908299300   -1.14151863621043   -1.36606867680090
N           2.04448750533618   -1.97630878462623    0.13043319434251
H           1.89227170713999   -1.20555565714502    0.94342880044425
H           3.02870233987528   -2.05755644906499   -0.10058750335488
H           1.68600083913767   -2.86848327898771    0.45527991246829
