    26
        -50.43251209  Gyration_radius:  2.56541883326 Dipole_moment: 4.000
 S          -1.78331411074639    1.45826904458110   -0.94595264313233
O          -0.61676771840744    1.13571683451533   -1.70201862896111
O          -1.45555174914041    2.07369733351311    0.40281282057319
O          -2.70688355830063    0.36861466235996   -0.76949411511448
O          -2.51920606250557    2.62966730749469   -1.66365997877770
H          -3.26381860331157    2.86898580516309   -1.11674796791854
H          -1.93745610668877   -0.97950906703488   -0.17858430688656
O          -1.37494795660501   -1.64984856679454    0.26925258630234
H          -1.97412190833155   -2.32303431682423    0.59997500897230
O           2.22975422212393    0.12867917162277    0.53106460031184
H           3.18183556054690    0.02830298032489    0.50048221412661
O           1.42596785056554    2.66945076459608   -0.53609415076530
H           0.76099495620009    2.28481232179628   -1.11654767592683
H           1.83388323483777    1.92499532299312   -0.07536064455997
O           0.88889602903616   -1.13205166276824   -1.37445898524722
H           0.46460821007175   -0.35414789926657   -1.76684740849397
H           1.85594349653066   -0.38319287092810   -0.23012744469785
H           0.17994261476411   -1.59859534763739   -0.91112308531361
O          -0.19422965609469    0.36178423469186    1.69224683656375
H           0.74806217009733    0.39298258605566    1.43619886493331
H          -0.89145473104291    1.41456347903158    1.00656066788536
H          -0.55166355066124   -0.47279138576237    1.33056722531044
N           1.47404916808840   -2.92413805299781    1.32700689147725
H           1.84343970710572   -2.05614157345267    1.69580410404058
H           0.48247482891935   -2.79121942401761    1.17445013152340
H           1.89956364291219   -3.07585166120376    0.42059507375929
