    26
        -50.43251196  Gyration_radius:  2.56582565302 Dipole_moment: 3.996
 S           0.49157734382351    0.25375087504643    2.42924824430407
O           1.53337912201952    0.31306222879782    1.45569102209058
O          -0.32789344403652   -1.02064167737558    2.33289569803597
O          -0.38584920341613    1.39462529239293    2.44172319693809
O           1.14748769360960    0.10928781809063    3.83550916718395
H           0.43794837536176    0.01638169276702    4.46703352627659
H          -0.97533074823056    1.71427716515999    0.92210815485238
O           0.53742922931851   -1.41066698429285   -1.73096850415777
H           0.94164993439733   -1.77213770769928   -2.52053771952159
O          -1.32335855442705    1.71068803356746    0.00277519681484
H          -2.07185680916159    2.31178814200638   -0.00159556198435
O           1.87802865370002   -2.34756662623418    0.62783768306203
H           1.97195840153205   -1.46477535525465    1.00069772770491
H           1.43341494005401   -2.22767834370344   -0.22116591069114
O          -1.41092352974407   -1.01765665951159    0.09456408274667
H          -0.80250026133836   -1.11055410157596    1.39246592475293
H          -1.51153411717633   -0.06180949910052   -0.08337465449866
H          -0.78220298828551   -1.35795316758319   -0.57118339577716
O           1.20251976044325    1.08788745777384   -1.15298254785549
H           0.36311153198747    1.53175036029795   -0.97086645178603
H           1.59214120954221    0.91762838616590   -0.28210804444486
H           0.86911984936251   -0.48282133521291   -1.62997776711834
N          -1.39390290585959    0.77316469981705   -3.15558233588301
H          -1.64228225034507    1.22196515610513   -2.28320795950685
H          -0.48874672737127    1.13388903470229   -3.43161064652658
H          -1.28338451580238   -0.21588488507814   -2.96738813503208
