    26
        -50.46656041  Gyration_radius:  2.45832815433 Dipole_moment: 4.220
 S           0.99741711343376    1.53333216653964    1.08925139385957
O           1.33396276790498    1.99735671227966   -0.24216898342631
O           1.00245457338057    0.08279724905365    1.20375644452906
O          -0.22259710977029    2.12912399460157    1.59972757645516
O           2.16698352344078    2.02600844795795    2.04037161891513
H           2.11200759764581    2.97120753265345    1.94870737449612
H          -1.59392543501115    1.52501701381046    1.07125416827942
O           2.49114036587407   -0.37325887944732   -0.93265462103299
H           2.05860908819761   -0.37637552996370   -0.05647011714493
O          -2.39120592327766    1.08072108690287    0.67547378854480
H          -3.14250844466917    1.62721666140471    0.91069209199420
O           0.35361936531185   -1.17161479536964   -2.25268519939190
H          -0.15194100422212   -0.32357302390307   -2.15806336251590
H           1.25214685010274   -0.95106655277959   -1.89317127961659
O          -1.24662379097494   -1.22483843776062    1.52101441794499
H          -0.92307235815125   -2.13005238221094    0.34132287111601
H          -0.38256826809530   -0.75819564487493    1.58608887821674
H          -1.87075281501443   -0.52219451919995    1.26300004653698
O          -0.79093865425293    1.10205189020822   -1.60811122852665
H           2.51037871704956    0.56690048359775   -1.15133047873781
H          -1.49036299475942    1.07987315572693   -0.93823264799325
H          -0.02700405513431    1.54198177802492   -1.18765211162126
N          -0.60462448890186   -2.73969234719931   -0.49484430047712
H          -0.19539991647444   -2.05377675378813   -1.29472696581539
H          -1.38260641073047   -3.28058569093307   -0.85661142275534
H           0.13741170708624   -3.35836363532737   -0.18393793183889
