    26
        -50.46656041  Gyration_radius:  2.45775613339 Dipole_moment: 4.199
 S          -0.92866834409946    1.87067720100600   -0.40130911708040
O          -1.29296092550653    1.21141175491257   -1.63975954078644
O           0.40240178094073    1.51167354715339    0.06388793522556
O          -1.93819188034164    1.72510682205715    0.63007931667390
O          -0.84612963380910    3.41991563240011   -0.73013579785282
H          -1.73437556041381    3.61067621920058   -1.01217027592923
H          -1.97645831541215    0.34187839906111    1.41057093721541
O           1.29961406797337    0.63629134382525   -2.26369049891218
H           1.17488987332817    1.04064327099632   -1.38288811453419
O          -1.91885744064029   -0.55785509241482    1.83116951034110
H          -2.71025259098370   -0.65208704977255    2.36347774911884
O           1.08025786904084   -1.84818037779020   -1.40953726078926
H           1.26555143758703   -0.98672850063591   -1.86628188122472
H           0.10692456636374   -1.81075140242317   -1.22270852611086
O          -1.42121212673742   -1.33098409281577   -0.80117309636390
H          -1.64604164376542   -1.24291045795207    0.13703229845293
H          -1.48695788879755   -0.43360885577121   -1.18097985285617
H           0.43924094325540    0.77324407810587   -2.67942666176565
O           0.69641172819128    0.03877793550796    2.21184002166000
H           1.58656090428574   -0.93503820291976    1.45288785288602
H           0.62563859732507    0.73524729911850    1.52017457840975
H          -0.21250304453541   -0.30427815433487    2.28937664776702
N           2.22484681226364   -1.56211804786627    0.84348086903341
H           1.71774504389811   -1.71652756127938   -0.15480108834336
H           2.38707020730533   -2.45347921287212    1.29940252184041
H           3.10545557328898   -1.08099650447452    0.69148146397578
