    26
        -50.46656042  Gyration_radius:  2.45789957565 Dipole_moment: 4.199
 S          -1.95309759198599   -0.82857504444326    0.15304395166534
O          -0.78083242821577   -0.90462515858412    1.01173385557396
O          -1.68246418145543   -1.23416430675244   -1.21205654574106
O          -2.62230466720003    0.45563203351454    0.23503859002689
O          -2.96514811702669   -1.89838486111633    0.74177447337522
H          -3.71437324912130   -1.80143623381698    0.16373485726329
H          -1.71880557896907    1.75077497472554    0.05581252806397
O          -1.06824631154860    2.49186795229539   -0.07483433450068
H          -1.59188106596866    3.28637975854153   -0.18912119989325
O           0.59268795531961   -2.56742416068848   -0.51724210158031
H           0.17488886491994   -2.07305970970631    0.21477049503156
O           2.14070709746874   -0.57768733595188   -1.28799736243037
H           1.41433144144065   -0.02023731529894   -1.66922090559342
H           1.68962031949364   -1.43472822515960   -1.07078438318652
O          -0.02901316003441    0.73345408426077   -1.97214019890242
H          -0.30075740179304    1.47762982184852   -1.41461182855289
H          -0.09284817894270   -2.55121406812147   -1.19681730764250
H          -0.68663037237188    0.02738852260745   -1.82096713630734
O           0.35149878525009    1.28797170271187    1.89452451923563
H           1.70757929437481    0.82519029296776    1.38090274162850
H          -0.05639156968387    1.92942941005124    1.28472020735596
H          -0.15234951609009    0.45810215547119    1.73297075650188
N           2.63276873331314    0.40820933298034    1.00401370515255
H           3.35294504009231    1.12112893840304    0.96195448005620
H           2.43482091000732   -0.01428807739093   -0.02548802871509
H           2.92329495873660   -0.34733448335038    1.61628617211369
