    26
        -50.46656021  Gyration_radius:  2.45836380863 Dipole_moment: 4.218
 S           1.59970723720779   -1.35069897847603    0.38692698386393
O           0.16915267398397   -1.54542977272296    0.20580359356883
O           1.91341059381260   -0.38590046758240    1.42234096145720
O           2.28792069718092   -1.07914621435517   -0.86067027985068
O           2.14388198475082   -2.74822343144829    0.90274425736533
H           3.07540253177370   -2.57733913687967    0.99175898524788
H           1.68212656866779    0.06396575398307   -1.78305883228041
O          -0.55613163536650   -0.58907275623854    2.56116443244113
H          -0.45390613146455   -1.09015293411042    1.72851593743434
O           1.22863610159944    0.79691309599602   -2.27984097769910
H           1.82293022604941    1.04173393987465   -2.99069341213252
O          -1.40686124790112    1.62040748184014    1.40214254798852
H          -0.53580877687108    1.87036661035809    0.99917853829221
H          -1.18372888705543    0.84771215773294    1.98382652043320
O          -1.01810210113222   -0.68409616971222   -1.96612894421269
H          -2.04941855436361    0.07128525826287   -1.14075099093078
H          -0.32336091277806   -0.08391108522001   -2.29325382099589
H          -0.57858030745423   -1.17417853363070   -1.23454495698240
O           0.96079092517081    1.84841592113526    0.28932412366663
H           1.03195081513989    1.66301161701390   -0.65883356460506
H           0.35534052418807   -0.35354655134113    2.77530519542659
H           1.41347112118378    1.11216539089324    0.74414792228435
N          -2.75195004126238    0.56108874384728   -0.47832216312296
H          -2.16634095310747    1.05563096581197    0.35243474760596
H          -3.36346965097684   -0.14085050521806   -0.07407076935555
H          -3.29706278096936    1.24984960023821   -0.98544604488383
