    26
        -50.46656045  Gyration_radius:  2.45775469309 Dipole_moment: 4.197
 S           1.79308745152154    0.62673692807096   -0.95628173982662
O           1.53428866928337   -0.26752415605832    0.16191360649654
O           1.20597918478744    1.94015143679065   -0.77914882293166
O           1.45958432108490    0.03088467665855   -2.23604809117993
O           3.36467489580907    0.83921850920589   -0.95853177170762
H           3.48667360414316    1.41082609223306   -1.70908099663264
H           0.01895628322041   -0.62482650800692   -2.37154380723184
O           0.95342495363434    1.62144191227448    1.91812718361234
H           1.26755106180985    0.82701779293726    1.44381842838797
O          -0.90236361992311   -0.99972613344557   -2.35272938085218
H          -1.12115231391565   -1.20962605828203   -3.26190530035552
O          -1.60338474779370    1.00770113084595    1.72731372807265
H          -1.68124583813419    1.17886535081910    0.75345673008742
H          -0.69221995752639    1.33152915435453    1.95094900792314
O          -1.39745972346674    1.31055571763136   -0.87271803138526
H          -0.48285745070268    1.65076804479932   -0.91349665469802
H          -1.41186237100655    0.51183952246459   -1.42078262022285
H           1.03627253347046    2.31063632692886    1.24729134488028
O          -0.07704954603273   -2.31383457351700   -0.13166924022944
H           0.66440762846788   -1.67287154240100   -0.04286114085199
H          -0.88709644981808   -1.88235654452011    1.08279642129721
H          -0.51626307206689   -2.04721986320031   -0.95978119588395
N          -1.39149165177227   -1.51521991410257    1.96744299652011
H          -2.29654954106848   -1.96101591606135    2.07146585325284
H          -1.51292100582048   -0.39608223807699    1.86469153013911
H          -0.81098329817856   -1.70786916835496    2.77731197327993
