    26
        -50.46656038  Gyration_radius:  2.45791143831 Dipole_moment: 4.204
 S          -1.15162880372925    1.29273458909185   -1.23612232557143
O          -0.73382499215530    1.37533967147700    0.15513590114088
O          -1.85450212531861    0.06312069404248   -1.54444264182675
O          -0.06851476814316    1.56721853693823   -2.16117881855636
O          -2.20413165000434    2.46457892735236   -1.42045333982314
H          -2.43369667772918    2.38247764228780   -2.33996179620928
H           1.28721499059475    0.76949000756855   -1.93960191192849
O          -2.42260848433023   -0.43826435948770    1.07601348428103
H          -1.84504406975452    0.33578122986651    0.92738052315705
O           2.08425310452131    0.21674856352383   -1.71823168612399
H           2.68571074718307    0.31157108141339   -2.45834937846341
O          -0.44243586217652   -2.16416349329314    1.29987175535744
H          -1.28068551255248   -1.63320619542733    1.32279192584172
H          -0.18274829571482   -2.15258706673136    0.34272233601936
O           0.12996235210785   -1.70929343764394   -1.22209824464450
H          -0.62955183043681   -1.13877833287033   -1.44912720126303
H           0.92410123179046   -1.18923866769711   -1.41556689471978
H          -2.74566292348180   -0.63075438278263    0.18693708377684
O           1.80705317661829    1.22539502011410    0.78093171003225
H           2.15077851079200    0.86405141500845   -0.05639086833980
H           0.87717158254002    1.46672016747189    0.56755871138396
H           1.52269808523852    0.11371496106509    1.78098539662239
N           1.22810457891404   -0.65549250905884    2.48347354916854
H           0.50105165812292   -1.34759279746980    1.96361872082979
H           0.75761098704479   -0.21731119872659    3.26874232160505
H           2.03932499008361   -1.17226005605272    2.80536171820794
