    26
        -50.46656045  Gyration_radius:  2.4577994869 Dipole_moment: 4.200
 S          -2.11488354819070    0.21094593261102    0.07810731563341
O          -1.19358635003910   -0.08229534641587   -1.00924103034447
O          -1.77923280089386    1.42662857004935    0.79262317962954
O          -2.31438146991973   -0.92233757664913    0.96122936782754
O          -3.51045389755355    0.47985609394530   -0.62559157381917
H          -4.07870687290507    0.64829822121650    0.11847138799176
H          -1.01074433788003   -1.64159149331397    1.51548428519128
O          -0.13606551482415   -2.01353243294618    1.80930486279734
H          -0.33435742538320   -2.62821680740936    2.51737028758627
O          -0.23151977893165    2.36873547681248   -1.24657766143207
H          -0.57218071834415    1.46283602642230   -1.38132691174622
O           1.99911086052036    1.60261298280086   -0.06891233720929
H           1.57539055374477    1.30365250306642    0.77655012187570
H           1.25711750848665    2.04012584520047   -0.56200984342486
O           0.54065494592804    0.68916913521363    1.91428896602730
H           0.44931606462102   -0.27156864739504    1.99904981395583
H          -0.75081334812821    2.67665613463621   -0.49334482214515
H          -0.33175755496428    1.01992192258236    1.62565452083025
O           0.44953766278407   -2.11692937977176   -0.83415240440627
H          -0.27053648891941   -1.46867972521921   -1.00642567039507
H           1.63545702816047   -1.21928423098835   -1.15841485813232
H           0.38729728233159   -2.28362951877278    0.12402078388692
N           2.41552921567542   -0.51413079332119   -1.41558664540505
H           2.33431715185591   -0.28298270941322   -2.40047550665608
H           3.32949125973730   -0.90942941074713   -1.22292730668656
H           2.25600058302627    0.42516922778067   -0.80716833140900
