    26
        -50.46862765  Gyration_radius:  2.47526931905 Dipole_moment: 3.981
 S          -1.46169381030292   -1.40169890458298   -0.97195617308570
O          -0.96589383172721   -1.55008596708891    0.40687470135883
O          -0.38878992274243   -1.08778079737425   -1.87565075038394
O          -2.60306183370057   -0.51232285328935   -1.03534058710852
O          -2.01910445344149   -2.83319573946312   -1.37528903197357
H          -2.92356479372877   -2.76436182390793   -1.08826462401710
H          -1.92316407661339    0.93683448653769   -0.86978260476335
O          -1.50098324107823    1.80739467325264   -0.66611991955599
H          -1.93877078179977    2.45183515449691   -1.22492275634885
O           1.35142795470561    1.03544794743818    2.13368800416358
H           1.56123771021906    1.37257251282355    3.00474427051173
O           2.12813429775297   -0.23170016014673   -1.69768432919237
H           1.28075170334556   -0.55662177256920   -2.05565691967501
H           1.95980297167706   -0.86664055059455   -0.34336555597359
O           1.26253382391603    2.01140479242822   -0.54866919795858
H           1.41811057704945    1.85844327097491    0.39309622547241
H           1.94519912483567    0.70430841869135   -1.44825066749957
H           0.29805251542494    1.96910034422164   -0.66696773028724
O          -1.20852345712015    0.70262252907854    1.84450279737199
H          -1.45877916026213    1.31578597770562    1.13662455673193
H          -1.24990095859082   -0.18030266137859    1.42616834447852
H           0.35276842016184    0.94823120943646    2.09538123590718
N           1.62858986478575   -1.21878843520948    0.63582994229877
H           0.59775561324788   -1.44510148809379    0.53584248333570
H           1.70892362390362   -0.43397946867561    1.31015415376229
H           2.14894212013647   -2.03140068478617    0.94501411243237
