    26
        -50.46656045  Gyration_radius:  2.45781626144 Dipole_moment: 4.200
 S          -1.73221429198272    0.94119913720377   -0.79844254656252
O          -1.19482556789977   -0.40473526618032   -0.92787060165151
O          -0.77681538319558    1.96974003201823   -1.15963942185289
O          -2.34644333735848    1.17483240127646    0.49469837864093
O          -2.89955148425888    1.02345832571350   -1.86880591885413
H          -3.22851941497930    1.90611305032830   -1.73607126545554
H          -1.49162032640871    0.79201745245292    1.77811976016325
O          -0.87415654328205    0.52584365920300    2.51130248152515
H          -1.26024679583726    0.86727174370553    3.31932058793846
O           0.78809729915179    0.22733024929268   -2.55792743409666
H           0.04291837282190   -0.18925892697074   -2.08247167921213
O           2.49949989664673   -0.02140815691679   -0.56843857536363
H           2.00586322534547    0.06829663445535   -1.42487137021085
H           2.08419569254773    0.66462702308970    0.01519614897043
O           1.01912241824771    1.65674139542483    0.80512223063128
H           0.49010908306086    1.29729967357632    1.53276522318205
H           0.56877109492909    1.16603079405921   -2.50672602011010
H           0.38443031691376    1.90615665681414    0.10598209585343
O          -0.71567107904160   -1.84491999126958    1.20908989385733
H          -1.05278397485983   -1.40658667623329    0.39506631012742
H           0.70919589596107   -2.10896088027716    0.74267960122822
H          -0.73999483420385   -1.13853220616630    1.88006062956066
N           1.69620260048818   -2.26256415354168    0.32546872249731
H           2.07604018482136   -1.26862154813443   -0.05646171449971
H           1.62331208468564   -2.90629122618293   -0.45577814590578
H           2.32508485767550   -2.63507918672634    1.02863262960707
