    26
        -50.46656054  Gyration_radius:  2.4581027638 Dipole_moment: 4.223
 S           0.90079928015738    0.85551459009208    1.72774538212572
O           1.03590743628520    1.13595452312747    0.30640197969950
O           1.14438224598711   -0.53510772158511    2.05608839521326
O          -0.34567702125902    1.35229968373060    2.27878616911529
O           2.05843724268188    1.68667113212135    2.42362223940811
H           1.91162871315109    1.49834079417389    3.34442341147973
H          -1.67832587970669    0.96304382729125    1.50609119827950
O           2.47703999875472   -1.00251411743520   -0.27639532109307
H           2.07976107529406   -0.11218689714000   -0.21071704351317
O          -2.44848660029005    0.65959822148687    0.95428893903449
H          -3.23490368011789    0.86553163305647    1.46188795655348
O           0.36788361064322   -2.11746764404571   -1.39809461368296
H          -0.20569472471275   -2.09709001557927   -0.58917559382235
H           1.25694509590416   -1.82990336779913   -1.06344018086311
O          -0.94503951547316   -1.68563673522863    0.83451716291694
H          -0.20667563031651   -1.35589186181593    1.38224754176154
H          -1.61368391110079   -0.98464270278237    0.83478757320906
H           2.40665864883770   -1.32868138701798    0.62955310141045
O          -1.07764577785729    1.70991842266469   -1.13304218956635
H          -1.76969675826797    1.40239802266509   -0.51955840430806
H          -0.25559363439738    1.67928895671340   -0.59280304800531
H          -0.72002798539570    0.62868394071924   -2.14247899413378
N          -0.38002873742292   -0.14528189251952   -2.81888496742281
H           0.42559444548187    0.19955397830778   -3.33086161355566
H          -1.11934866863584   -0.40427804247391   -3.46312553148993
H          -0.06420928824565   -1.03811536069086   -2.20186353872999
