    26
        -50.43251208  Gyration_radius:  2.56569904354 Dipole_moment: 3.998
 S          -1.31334714654113    0.29365158299497   -2.09635512276280
O          -2.34068258692012   -0.09492887943186   -1.04830473498810
O          -0.15279153047010   -0.53622332797033   -2.06406263825591
O          -1.04626042347737    1.70548582265914   -2.01295618756088
O          -2.08073159784708    0.00518918493514   -3.42179924343450
H          -2.87972761775285    0.52677342078676   -3.40167336281715
H          -0.07104727455875    2.05593651566766   -0.71477274999454
O           0.40915908743180    2.11985885874146    0.14057027923187
H           0.43383828806434    3.05327732582490    0.36355158349105
O           0.61300658063653   -1.69039391364184    1.42881052033097
H           1.12567683570825   -2.36284804868218    1.87875447599396
O          -0.96932595425821   -2.83547024464186   -0.67453202467739
H          -0.67490549801578   -2.19437627155242   -1.32983427323977
H          -0.50867268009256   -2.60538225841524    0.14261398948958
O          -1.26828480497288    0.22698886888650    1.17212244201875
H          -1.95134491042713   -0.01226584153768   -0.06915866211469
H          -0.73115940864196   -0.55917220849423    1.39057786319099
H          -0.63733884297275    0.95145455698638    0.99211129845802
O           1.94829182047420   -0.22743261232237   -0.33048940361253
H           1.71219210194544    0.68686860378549   -0.12284370619585
H           1.22434385055653   -1.22446848862124    0.80401926631528
H           1.42023197001538   -0.45356042186208   -1.11101929938731
N           2.01317197190487    0.91762694836990    2.75683391027859
H           1.36002997462198    0.16503247307988    2.93806016338397
H           2.80489459393038    0.52216254792621    2.26448649502458
H           1.56078320156895    1.56621579641992    2.12528911177390
