    26
        -50.44582476  Gyration_radius:  2.68628178468 Dipole_moment: 3.265
 S           0.69061169263838    1.85660151118141   -1.60682702532712
O           0.47984065608055    2.98559270600303   -0.68504718124402
O          -0.54845969906598    1.17370045997505   -1.90544327921577
O           1.74101559192394    0.97867200883015   -1.13539178984929
O           1.19372886235179    2.50272660557344   -2.95585727419619
H           2.03421191100085    2.87496241949066   -2.70748539748911
H           1.13347912697089    0.34224968299703    0.25384748662865
O           0.57883721626492    0.05645045076810    1.01571114723907
H           1.03553060556139   -0.74496766932626    1.41400271142775
O          -2.58775630760530    1.30621647436355   -0.22268588249119
H          -2.02720934849288    1.44461508292059   -1.01688743095153
O          -0.34017466815738   -3.61585455611894    0.12082783020162
H          -0.74093852097497   -2.78533408717773   -0.19908128116924
H          -1.06046467334768   -4.24028422503037    0.21523834951597
O          -0.76887067506411    2.18133671134620    1.27508848761900
H          -0.21966880332546    2.65595224116846    0.48386095151714
H          -1.64037204101313    1.87036025263138    0.77539403264270
H          -0.23009240705224    1.33354270009502    1.41682271290722
O          -1.32151715980371   -1.10992884802044   -0.47377534315062
H          -2.57970441851930    0.33830042520829   -0.11587520729448
H          -1.07737394901617   -0.68159467146281   -1.30569447454741
H          -0.66062554221998   -0.76549416705755    0.16718244817426
N           1.64663293887282   -2.22966443180112    1.78173407088579
H           2.58306622754713   -2.33650542912677    1.41273991087018
H           1.03580555912762   -2.85193529957402    1.25267054110811
H           1.65046784544898   -2.53971633778975    2.74493087621318
