    26
        -50.45059460  Gyration_radius:  2.46314374283 Dipole_moment: 4.140
 S           1.38412528441531    0.75279662380510    1.23354465887838
O           0.00003150257222    1.30799597303866    1.66969163550593
O           1.38054170645776   -0.67748713486975    1.79849765701674
O           1.39129813390796    0.66703645343458   -0.21435821188844
O           2.40900080749019    1.53861765153787    1.81084050451903
O          -1.35167343019384   -1.52178851941604   -0.97204410339306
H          -1.96442563499979   -1.95820794537016   -1.56450346118374
O           2.86642510443218   -1.13917333146817   -1.52898145531938
H           2.40033417213855   -0.34518114995247   -1.20442598470810
H           3.78522784249572   -1.03882004612864   -1.27550911147531
O          -0.78171649264652    0.82532847475725   -1.82486750206065
H          -1.34153075669528    1.46543838860796   -1.32660589065651
H           0.09526907995530    0.88448546719226   -1.40910307260018
H          -1.14882533463233   -0.61690220565195   -1.38102044614836
O           1.04192499233345   -2.36683031436755   -0.01787567997396
H           0.19249043702844   -2.15070526394874   -0.45325584965299
H           1.74311026327220   -2.12271647255893   -0.66156160788024
H           1.25338534707634   -1.39514469321406    1.04822918137672
O          -1.49771256376061   -0.77568995353897    1.58729227004117
H          -0.97710559686290   -1.43438858868263    2.05549512977814
H          -0.64083952468060    0.53242106125867    1.64629476202092
H          -1.55987589068550   -1.07958032483887    0.65431240896504
N          -2.09665553753657    2.51079509623323   -0.13273246100070
H          -1.39703816282844    2.47095037267952    0.60179728147372
H          -2.97108595376818    2.18706412166533    0.26126004759108
H          -2.21467979428073    3.47968624980277   -0.40041070922952
