    26
        -50.43251200  Gyration_radius:  2.56529017726 Dipole_moment: 4.007
 S           1.33480775798934   -0.67226188069056    1.99192255092389
O           0.02110324173553   -0.13328115760679    2.13412940843945
O           2.25676883699190    0.23374785001295    1.19557159555981
O           1.38314033883404   -2.00628226607383    1.45368264002237
O           2.01510462339575   -0.67097449532751    3.39403520080171
H           2.90915651439041   -0.98173892357514    3.27172783525830
H           0.51264278668295   -2.11670279480119    0.04371427704438
O           0.06067961960546   -2.00178954090354   -0.82171044233547
H           0.23697071158267   -2.80132674015006   -1.32295695984396
O          -0.95751095783019    1.89481756370233   -0.87260158448393
H          -1.60128841409370    2.55615784559426   -1.12885267325537
O           0.32189478745373    2.60611835490748    1.59620226804128
H          -0.07054783103687    2.55946765856357    0.71492737270065
H           0.17169742366116    1.74272522769243    1.99512420882823
O           1.29236513570159    0.42195283931476   -1.08885936434749
H           0.83344558284269   -0.43505491811338   -1.18973348325387
H           0.59808555562041    1.10924921682717   -1.09094171241157
H           1.90036567810485    0.38827315820954    0.21263261545953
O          -1.95288961699059   -0.29444659264419    0.23834507004948
H          -1.52142447207704   -1.02538004767138   -0.22480599562745
H          -1.49189829708841   -0.22680914773338    1.08808468348418
H          -1.45667560793364    1.13907439932981   -0.47149206132705
N          -1.74764709645316   -0.37681157879777   -3.04755024527896
H          -1.27297697076975    0.51083004096275   -2.93504602096282
H          -1.16730434477250   -1.08740466747768   -2.62041621854414
H          -2.60806499558133   -0.33214941359504   -2.51513295501731
