    26
        -50.46656046  Gyration_radius:  2.45791664767 Dipole_moment: 4.199
 S           1.04558939958096   -0.70909716565313    1.71138847742813
O           0.62963101483486    0.62056852111006    1.29157675707061
O           1.83684836545587   -1.39747896401934    0.71078379205202
O          -0.05952654897575   -1.51028248871121    2.20212028582610
O           2.00712626972737   -0.46795201328702    2.94926022493582
H           2.23748005984630   -1.35688345601914    3.19758788704401
H          -1.35211548294502   -1.59559253271909    1.28203583850884
O           2.45403832488891    0.91512775564222   -0.59921791879496
H           1.81960987230598    1.02196320040946    0.13623294185573
O          -2.10445140732670   -1.58864333370103    0.63120857561036
H          -2.71257159634703   -2.26958160501891    0.92282120537660
O           0.60845212677895    0.50833406514925   -2.43753532916173
H           0.34330350446113   -0.39426246046703   -2.12320308209490
H           1.40524230876566    0.72433285420472   -1.88666314316254
O          -0.00990092035601   -1.72524898174011   -1.20350746797634
H          -0.84129484827565   -1.74902868532215   -0.70666572859361
H           2.78674283485574    0.01992214615495   -0.45882041450930
H           0.70426861584607   -1.73334416646587   -0.53733577906491
O          -1.88916390031622    1.10980310454991    0.75855255957123
H          -2.21077859475383    0.19366667732535    0.67577210527862
H          -0.98073051784672    1.00720052084801    1.12312916316151
H          -1.51718505041114    1.68600876097098   -0.60024427336180
N          -1.16173037179871    2.09668985325226   -1.53671260090502
H          -0.38901189490746    1.38918174636963   -1.96072135324710
H          -0.71953977367593    2.99169443621113   -1.35360427369791
H          -1.93033174941831    2.21290219092983   -2.18823844914474
