    26
        -50.45538158  Gyration_radius:  2.56586261733 Dipole_moment: 4.093
 S           0.94887344454933    0.03382265689980    0.44684716533115
O           1.52358991184681    0.38543644586079    1.83649477894810
O           1.45120109596787   -1.24904303728320    0.01952950527972
O          -0.52666322463055   -0.00044117750012    0.60079759658975
O           1.30810623861220    1.13528437704955   -0.44321102562929
O          -1.48694118773655    0.35646311624726   -3.03864411624920
H          -1.38520340186504    0.94917020307994   -3.78612126360989
O          -0.10628346138020    3.27435651795797   -0.78034009568586
H           0.56120737620675    2.54645333650150   -0.68029825735268
H          -0.00684021851240    3.83619426454703   -0.00961071045210
O          -1.90374005877488    1.47523910289647   -0.80160360438575
H          -1.30786904139945    2.30708518049373   -0.82813317161408
H          -1.82984039018005    1.02790715133780   -1.73185418500095
H          -1.35867441534965    0.81038388427400   -0.15078464739091
O           0.94082340466306   -0.45946914798756   -2.52536290686075
H          -0.59226223911541   -0.05955691389289   -2.89253795713257
H           1.24879036615993    0.28620147002028   -1.97954706841200
H           1.08014192956226   -1.21351950893756   -1.93670150656627
O           1.76037254975772   -2.03780408985722    2.57075065571561
H           1.68570792122226   -0.50872926650040    2.28126776009513
H           0.80233459465061   -2.23360044749369    2.72043129947418
H           1.89859048471457   -2.20352510565770    1.62581729934092
N          -0.92350820500685   -2.17569980953178    2.46222034074946
H          -1.52539873040201   -1.89044583905851    3.22441110621979
H          -1.35240130263716   -2.97575249183895    2.01419463620025
H          -0.90411342092006   -1.41641087163599    1.78198838233823
