    26
        -50.44582476  Gyration_radius:  2.68656348467 Dipole_moment: 3.272
 S          -2.46097747245338   -0.24200271277194   -0.62804021487454
O          -2.09530420328808   -0.64082808633476    0.71285126659060
O          -2.29843724196650   -1.34821903058164   -1.58646004753233
O          -1.78738472291841    0.95566430408560   -1.08434476223544
O          -4.00712138308704    0.07316899994009   -0.60633875445498
H          -4.16658188173812    0.39237856795974   -1.48911472173934
H          -0.19400441011875    0.54822145826104   -1.06217502367244
O          -0.42508248376549   -2.65719395027652    1.10007647060656
H          -1.24973698675182   -2.12489620557543    1.07093518351491
O           0.68536680736195    0.12241930845105   -0.93947028868843
H           1.36790682298125    0.85632029605665   -1.01001564863782
O           2.16534538508328    1.99271287431876    2.13267859267741
H           1.51918323101449    1.26148122826348    2.10988654894013
H           2.72145205858031    1.83340565032435    2.89620802450396
O          -0.02992097765517   -2.26858170960531   -1.35148505123757
H          -1.03687318709990   -1.95856095585447   -1.55793424187142
H           0.45426317160885   -1.37779274345333   -1.31562700146711
H          -0.10214624391631   -2.58006458713279   -0.34968193869214
O           0.47458117599715   -0.14459038412082    1.72055614631150
H          -0.48315776882403   -0.01737208159837    1.76122506098415
H           0.19640594260744   -2.07162350968473    1.56806086512125
H           0.68117598020038   -0.04546764499557    0.76463057544785
N           2.37581808562732    2.14097513992391   -0.79337095661731
H           3.32822495739071    2.08662967213706   -1.13077717146584
H           2.40541504668206    2.22307528957258    0.22281842757949
H           1.96159030864868    2.99074083299539   -1.15509133899868
