    26
        -50.44582476  Gyration_radius:  2.68649021682 Dipole_moment: 3.270
 S          -2.28267791588237    0.16679349572043   -1.12691713244989
O          -1.19114181411950    0.85842021501461   -1.77565794980504
O          -2.92999660730509    1.01002428171921   -0.10778134494793
O          -1.91563499742941   -1.12577151931168   -0.58768431164455
O          -3.38475857186707   -0.08413702803427   -2.22825451327575
H          -4.03594248180529   -0.59535879332146   -1.75789839855727
H          -0.76200412155580   -0.77646658817690    0.53149203913652
O           0.04357168562702    2.85403676689655   -0.55156705022562
H          -0.52229399784422    2.35684477083001   -1.18151848800504
O          -0.08028329275981   -0.36248041404720    1.10901146910829
H           0.48250930571839   -1.11404225138281    1.46674599668571
O           3.26996887280448   -1.50366162614173   -0.50335325697747
H           2.67439202770536   -0.77763208860087   -0.76980022156826
H           4.16111490817395   -1.18729010797659   -0.65650703786857
O           1.45341004841963    0.53051633738178   -0.90143288128906
H           1.00073016744042    0.20240687165777   -0.09292630074522
H           0.77938353544522    0.44777297809902   -1.58986665971786
H           0.89059307486943    2.37566876237798   -0.59427631652650
O          -1.20064469646270    1.88570789545769    1.40590464460411
H          -0.64564123708473    2.42682999503394    0.69530226362873
H          -2.04759195146919    1.56860343019332    0.82740187441682
H          -0.69661044250330    1.01324916802105    1.52446903550801
N           1.54811126199101   -2.34339941304938    1.72312226680573
H           2.24078166092991   -2.18477664691400    0.99145324581301
H           1.11511522259348   -3.24032830062229    1.54257706312100
H           2.03554034660287   -2.40153020099867    2.60796196493419
