    26
        -50.44582472  Gyration_radius:  2.68636802675 Dipole_moment: 3.270
 S           1.66423570089218    1.24682950865184    1.47695711591373
O           2.09310523809586    0.09349156846565    2.28591712862004
O           0.26570846740436    1.55126618404258    1.68251749274115
O           2.02611864084190    1.07964298428765    0.08506236551358
O           2.48616524056381    2.47656344919587    2.02696351290373
H           3.38159710093315    2.24658540404890    1.79912484698775
H           1.12077652011277   -0.20129001680908   -0.40986659227544
O           0.47692224474365   -0.93983290420837   -0.50812463870298
H           0.39299748925060   -1.11299955451873   -1.49423394028936
O          -1.40059185942615   -0.32343812107899    2.52776218314118
H          -0.83353934835891    0.47805277927093    2.51065291831219
O          -2.31330947625520    0.59961515971224   -2.73746210663203
H          -2.16922634520597    0.69600234462613   -1.77686505750712
H          -3.26245681899028    0.56712895601456   -2.86258097667961
O          -1.70186432726919    0.55497035686759   -0.05017225637179
H          -1.94157999403872   -0.22539445678597    1.72411242472261
H          -1.23316536709963    1.30035276048285    0.34963445411354
H          -0.98239227070244   -0.07176443653737   -0.28651281426893
O           0.54617523282762   -1.77459372789106    1.87869797019584
H           0.51159726397051   -1.67976903093068    0.86925752366886
H           1.29207167138677   -1.04726087129801    2.13820023038017
H          -0.33296637177527   -1.31386117620717    2.22627858359285
N           0.05611274576931   -1.09717309139696   -3.10644975595033
H           0.78250866007289   -0.61661451664364   -3.62214351222203
H          -0.78228632661642   -0.51783527855732   -3.14613015310306
H          -0.14271371116530   -1.96867427275835   -3.58059696678499
