    26
        -50.44833786  Gyration_radius:  2.53179017414 Dipole_moment: 7.399
 S           0.63026978717812   -1.35272946174120   -0.00298434641355
O           1.32704767038869   -0.80012379009790    1.11152539528024
O           0.49197145711056   -0.31481527650580   -1.13504971069818
O          -0.69866795985277   -1.84792757285223    0.30166175054818
O           1.45266148349893   -2.45388597189524   -0.66530540310130
H           0.83178202395485   -2.78843370298897   -1.41555687122992
H          -1.50198202584679   -0.77449466470304    1.27861453989286
O           0.50560580118117    3.01766686685052    0.74377606408741
H           0.57380337237376    3.91333549603379    1.07580170271074
O          -1.94673866557851   -0.01072404511648    1.71194705991922
H          -2.79152830016688   -0.33155002105039    2.03277693751508
O           2.32235895870342    1.99957680497144   -1.24383540977483
H           1.80258618661069    2.44095117387666   -0.55970427744071
H           1.93390793977788    1.12664114458879   -1.34508736610782
O           0.40336692850174    1.22430639984894    2.66583258213321
H           0.94969358678585    0.51982094114341    2.27894683052243
H           0.55436195193487    2.41214281678606    1.52984822587654
H          -0.50214898225381    0.88871719062387    2.60741784143285
O          -1.21107784470275    1.40523599542692   -0.49938144380811
H          -0.23640931098088    0.41733061524142   -0.92243309228782
H          -1.62915416566031    1.02294863757494    0.29571973356552
H          -0.64306634315356    2.13866841852682   -0.17473160885442
N          -0.42064463694657   -2.97573667952073   -2.31746323990967
H          -0.45330793155556   -2.26067404151888   -3.03202315561367
H          -1.09219574204574   -2.74602651274196   -1.59197730042164
H          -0.65249521925421   -3.87022077077747   -2.72833541786341
