    26
        -50.45488104  Gyration_radius:  2.47419190259 Dipole_moment: 0.414
 S          -1.38062462157580   -0.12533585376712   -0.07357199539848
O          -2.15435090762056    0.28578709299828   -1.31151561299962
O          -0.67269128443649   -1.36507007098363   -0.31895024615420
O          -0.51105802937766    0.94656325826073    0.34613253922205
O          -2.47991557717743   -0.35151928312062    0.95496318642076
O           0.71358482082239   -2.02071770170450    1.92393774731501
H           1.42069319852293   -1.35010647182041    1.76100581410628
H           0.24803002814150   -2.06567205587442    1.07356709020344
O           1.29256283358591   -0.85256898787021   -2.01811007078421
H           1.43959800658450   -1.63246439966862   -2.55704431023858
H           0.63643912748881   -1.10922592006332   -1.33628550113869
O           0.14876561793574    3.00146679622266   -1.23454901857252
H          -0.01486794171233    2.33236235593643   -0.54114195937111
H          -0.49444600379847    3.69846756875084   -1.09483960842768
O          -0.40353455428693    1.01729685094165   -2.91426346652293
H          -0.12278836851714    1.86133914332228   -2.48988503050820
H           0.32321832077560    0.37905047470542   -2.73178210051930
H          -1.46398910771311    0.59545045478174   -2.06699262193846
O          -1.26953670308187   -0.86994018430596    3.09428089347198
H          -0.42966518232324   -1.31094746962149    2.74263296577804
H          -2.02465965470235   -0.51859518630445    1.86962642459244
H          -1.73922881750030   -1.54406548068720    3.59144966138579
N           2.19850683629511    0.02092405231944    0.98900311187613
H           2.87203940341848    0.64213521937888    1.41908706020932
H           1.33227334063434    0.53939860205862    0.86334307633319
H           2.53564522961243   -0.20401279389048    0.05990200165616
