    26
        -50.44582471  Gyration_radius:  2.68632211573 Dipole_moment: 3.265
 S           0.89498624559661    0.29936381165455    2.36972598178160
O           1.81449111107573   -0.24955595988208    1.39820836941757
O           0.08561060014710   -0.75337910832540    3.00657119899199
O           0.06223594956981    1.36279873024008    1.84830895906729
O           1.76929877918336    0.91761922576043    3.52887764469433
H           1.11428762637753    1.31382187471962    4.09509281324759
H          -0.79755401321653    0.64198849348647    0.64580180855189
O          -1.16885775563921    0.04110963043487   -0.04029392360387
H          -1.65947368172276    0.62595565915453   -0.69373207201688
O           1.31178979503799   -2.58203178714601    0.25138072904718
H           1.72260282349220   -1.89467815782430    0.81956716587568
O           0.39926950377322    1.37646282299526   -3.33945640994579
H           0.79253630275153    0.79294075530288   -2.66297493134787
H           0.72070602385903    1.05957095860451   -4.18427448037431
O           1.15260958924128   -0.34704614569112   -1.32497937117650
H           0.24384292391102   -0.23086821530966   -0.96863627617590
H           1.72060813457635   -0.03248591868984   -0.60833047766396
H           1.30647669198303   -2.16375011856788   -0.62798940081468
O          -0.95016753837298   -2.12496489438286    1.24769982935795
H          -1.25189930003325   -1.35457058988721    0.66078323808957
H          -0.06694029116110   -2.47898688973528    0.80018268040931
H          -0.56792533205650   -1.60538090416591    2.10626886625866
N          -2.13297554685682    1.66554418511337   -1.87971626736690
H          -2.94639209839511    1.44284155883106   -2.43886253692974
H          -1.31999451629877    1.67561677413957   -2.49548305082898
H          -2.24917202675063    2.60206421916215   -1.51374008650425
