    26
        -50.45028664  Gyration_radius:  2.64256675614 Dipole_moment: 5.332
 S          -0.19108735084101   -1.31038542617051   -0.85394210463774
O          -1.61817347063578   -0.98006176371518   -0.40525969032032
O           0.66012609601167   -1.58201931385098    0.25927800974410
O           0.27190610207921   -0.24312176302731   -1.72101029018666
O          -0.38884072727594   -2.58489976183787   -1.68370022560750
H          -0.96785335277110   -2.26774864499649   -2.46199348038534
H           0.66253857774494    1.15521220797541   -0.92864945923086
O           0.71682819516911    1.99641909106289   -0.42080226768321
H           1.02703972229551    2.66636419325044   -1.03236874729897
O          -0.51635326219779    0.81067367029380    3.15941318330451
H          -0.73186849939393    1.44225372211833    3.84716512468220
O           2.88485226176270   -0.90783944103718    1.63265339788656
H           2.85263711686657   -1.49512619945617    2.39018974846474
H           2.14205226755264   -1.17659549545083    1.06306716536546
O           1.80231579472550    1.51860957765683    2.13538532699613
H           2.32104857537866    0.69773753941169    2.00861767157864
H           1.53033860064905    1.78341725625193    1.24455374626149
H           0.40254831326918    1.03845156562138    2.85436169423738
O          -1.60576034742677    1.19775222398259    0.80311579448810
H          -1.66366928720208   -0.06753155843539    0.13283797952756
H          -1.30690502963179    0.99342394018326    1.73086564283161
H          -0.85566828835913    1.66522473430316    0.39338057614256
N          -1.76057588473157   -1.30005972151678   -3.42993288588869
H          -1.14711556394888   -0.51145794052008   -3.25008867075219
H          -2.67111685652864   -1.09562036054874   -3.03995376249848
H          -1.84924370242140   -1.44307233166135   -4.42718344690866
