    26
        -50.45538180  Gyration_radius:  2.56578254737 Dipole_moment: 4.088
 S           0.33568601686230   -0.21258105881155    0.97095588614141
O           1.56514818675883    0.52414166937338    0.68777262684762
O           0.47514925834513   -1.64407019652576    0.86226990450276
O          -0.08278973647333    0.16568231343997    2.40856977457202
O          -0.74057654023273    0.28338928662085    0.07770857841671
O           1.17747971219732    0.29558931157304   -3.17975555159775
H           1.95801791148581    0.67550089577606   -3.58811631259187
O           1.64826685978118    2.92148065882424   -0.27911310577773
H           1.40751712950923    3.54233063390968    0.41092243282408
H           1.75079523607272    2.03969539143751    0.16523458139209
O          -0.16805110614526    1.86639814910625   -1.71286750066211
H           0.54270178475636    2.42788461023299   -1.23618941696316
H           0.33356243502492    1.26387226111627   -2.38835948073694
H          -0.48786461847725    1.18184608315792   -0.94345272545629
O          -1.30493871404835   -2.02192641399462    2.84126359571195
H          -0.64916593764616   -2.39098596142279    2.23040110726752
H          -0.60007925565389   -0.63598029030301    2.74543473119795
H          -2.10077387858788   -1.85091411586935    2.27912101106468
O           2.11777512089975   -1.19347757715080   -1.25051788412722
H           1.50967816255450   -0.36744136738197   -2.51290617181781
H           2.23086267291490   -0.51292663945997   -0.56282325538916
H           1.54164163314353   -1.83343243644890   -0.81120949359463
N          -3.03324829797044   -1.25705870719228    0.92775217516857
H          -2.28994040040359   -0.68491189235401    0.52806402116044
H          -3.82515809744952   -0.65215210767966    1.10524222766832
H          -3.31169554720455   -1.92995250994793    0.22459822479578
