    26
        -50.45059453  Gyration_radius:  2.4631820291 Dipole_moment: 4.138
 S          -1.48061186831922    1.11058139352255    0.76028094606490
O          -1.31041889180877    1.89126699605237   -0.55367550138428
O          -2.60042694661901    1.56532887026901    1.49538221292289
O          -1.45929333004266   -0.30623578292942    0.45045139712114
O          -0.17972415690686    1.44575554151770    1.54101942833850
O           1.53956457028154   -0.73163770219692   -1.47763198308003
H           2.20842616089063   -1.25286234419881   -1.92247620377310
O          -2.68619332676848   -1.31452459113147   -1.70471929299669
H          -2.32458965291552   -1.12034476462581   -0.81898056129309
H          -3.61363672314287   -1.07426224178902   -1.67942369082411
O          -0.74536489347737    0.35782983786858   -2.45032775746400
H          -1.46275356410504   -0.31153947238371   -2.39675214004818
H          -1.08722005774639    1.26105827685845   -1.35807745974549
H           0.07693092660127   -0.11133561900830   -2.20231185261815
O           0.69840658822984   -1.93598446667009    0.62077145591016
H           1.16945366021209   -1.54759023648017    1.39450229599011
H          -0.18442302266154   -1.52874016566898    0.63604989762840
H           1.23326341437407   -1.27514392086958   -0.67888916993512
O           1.56095719574641    1.67962606849955   -0.33163432480129
H           1.11834529844248    2.24781906685469   -0.96833106093208
H           0.55084930664919    1.53953081814891    0.85524543229384
H           1.67164119779862    0.80486475599136   -0.76662769616924
N           1.77541176111973   -0.53676986599209    2.69812331029288
H           1.77517010435528   -0.95310160616852    3.62063176964513
H           1.07758336452802    0.20044976226914    2.68617392514548
H           2.67865290528066   -0.10403860773762    2.55122660370778
