    26
        -50.45538183  Gyration_radius:  2.56576172934 Dipole_moment: 4.087
 S           0.25252400627537    0.19411537502820    0.99980566857064
O          -1.03300713394947   -0.02685067116407    1.61529251758900
O           0.41040987736576   -0.64743690626502   -0.21225192926535
O           0.50668522236866    1.58867149078420    0.64608897430573
O           1.37773473011481   -0.22564299546303    1.97084789869056
O          -1.57779314727376    1.45982827227509   -2.63974846674387
H          -1.60577688983611    2.34112764916900   -3.01775226857026
O           2.02198185951928    2.35244615427806   -1.30571995908209
H           1.48556734591980    2.19291094590499   -0.48576717807425
H           2.93852260990842    2.22329397357845   -1.05502518553054
O          -2.02415729114165    1.83497991079117   -0.09328154337394
H          -1.12231955417427    2.06305684087824    0.19573829397466
H          -1.85844939690488    1.55851695492415   -1.68787215643618
H          -2.23649861471973    1.08287601092283    0.47559729995283
O          -0.02310166008660   -1.99428215628622    3.14400523347955
H          -0.02115348571231   -2.67380280310279    2.42508922041523
H           0.96765757298166   -0.95469997069351    2.54011506913022
H          -0.76294603132168   -1.40807397681813    2.92403118683472
O           0.73308617757962    0.44646593378603   -2.38915628301827
H           0.60418279855449   -0.09583224516176   -1.46598157098269
H          -0.20782221766591    0.83015573287429   -2.58503496112943
H           1.31983123391277    1.23674026894644   -2.10824188673122
N          -0.03964515269275   -3.31600670114218    0.80163196965210
H           0.10414009492544   -2.42261786064876    0.33177036586901
H          -0.91307670763628   -3.70087898860449    0.46436072537542
H           0.70342377371245   -3.93906024880136    0.51145897507854
