    26
        -50.45334088  Gyration_radius:  2.59379090102 Dipole_moment: 3.810
 S           0.75239027608271   -1.18101826749730   -0.49103512601169
O          -0.47264439806647   -1.48584446063903    0.36878148003523
O           1.61757663781361   -0.23438933832129    0.15100142196559
O           0.31426612301820   -0.77969916616837   -1.81047482089075
O           1.45067042767962   -2.54391115985042   -0.57640692006946
H           0.78421625112927   -3.11370427961146   -1.10308187399191
H           0.90611135741516    0.82215096631257   -2.05552404340455
O          -0.44194941166869    2.65731874342904   -0.17130877736134
H          -0.92410504166057    3.38069841163361   -0.57461347067017
O          -0.94709977262371    0.97738817105094    3.33719668141443
H          -1.23139781109038    1.70831214840205    3.88767660136487
O           1.31346864104876    1.69100649721048   -1.87292726941854
H           2.05292227758952    1.48624299353883   -1.29168251572815
H           0.20502245562699    2.33730820748333   -0.85519366793242
O           1.17716428189552    1.77953341145474    1.95847847502423
H          -0.06427990110282    1.22995227372567    2.97267858693801
H           1.49161388723330    1.01102365262258    1.45581137603091
H           0.70206620769778    2.32052242759526    1.31159157636023
O          -1.80783680421663    0.55113959233335    0.86764090319296
H          -1.07200279961797   -0.62998770791442    0.57007073109292
H          -1.63701371038872    0.65161831999107    1.83719535458303
H          -1.35531775975483    1.31132776308669    0.44416693010776
N          -0.48345759611967   -3.50394405096737   -1.95615747842465
H          -0.46868983291059   -4.18094132382627   -2.70747687274578
H          -0.58706508771368   -2.56953555205789   -2.34152434047992
H          -1.27462890709523   -3.69256826377295   -1.35488293130841
