    26
        -50.45129008  Gyration_radius:  2.61565256778 Dipole_moment: 4.160
 S           0.47279502878223   -1.37077673662704    0.02441777194675
O          -0.91663839138842   -1.45144757490356   -0.32786743362835
O           0.80603277035799   -0.58520837690989    1.17510134135769
O           1.23634022857460   -0.81869283911421   -1.20196388651540
O           1.03601593448418   -2.78971202090980    0.20158146271564
H           0.62678749318657   -3.33272121955422   -0.57222415358212
H           1.89780081532819   -0.10285915716807   -0.88356258666473
O           0.58851477265567    2.66505371266093   -0.25864976890429
H           0.56075174994696    3.39156378638816   -0.88257092312380
O          -2.59867122059115    1.81698879642002    1.72849207139698
H          -2.94484797714631    2.67907219563137    1.96300503393572
O           2.64782335250686    0.98489188795225   -0.13628435803187
H           1.98815347787648    1.71425792040779   -0.21563434664932
H           2.52306669881573    0.62983249176699    0.75215336542502
O           0.01004938613425    1.77824711465109    2.36343812514104
H           0.30944693176108    2.30557684172339    1.60942620762746
H          -1.69677906031717    1.76569732631745    2.11937093200088
H           0.25407982533720    0.86621031145215    2.14546189161121
O          -1.52027742002456    1.19328348061163   -0.67812232312636
H          -1.37790595809302    0.23513176639794   -0.63440508939228
H          -2.06379789368453    1.40219818751433    0.11108205597736
H          -0.20221721808423    2.08762884793188   -0.47091549355191
N          -0.23191811146299   -3.76115446692585   -1.79635978631514
H          -0.92291772639029   -3.03244571522518   -1.63883981161612
H          -0.68911434748847   -4.66325313035403   -1.80204297933865
H           0.20742686891755   -3.60736343013918   -2.69408731869342
