    26
        -50.46725538  Gyration_radius:  2.51592805264 Dipole_moment: 2.212
 S          -1.83562670426851   -0.72746562921519   -0.90208916051170
O          -0.48858370367225   -0.45796474023787   -1.41107383521977
O          -2.72327074688236    0.39360199204451   -1.04030295965080
O          -1.78326423267386   -1.28359295491619    0.44045892498167
O          -2.41615881417296   -1.87115951545677   -1.84347535131907
H          -3.32113897392876   -1.59558690572852   -1.94726628700882
H          -0.51155578082860   -2.22298825747506    0.91918832884097
O          -0.66479733533964    0.94322878635985    1.48357135043670
H          -1.21048684421709    0.18148176724368    1.22501965171529
O           0.24608479630636   -2.71960213706686    1.30446776535447
H          -0.14490845267664   -3.38440884038436    1.87306783953876
O           2.01663702972999    2.52680529607304   -0.64634551167514
H           1.08521332585998    2.59416104546786   -0.92385224115994
H           2.06031551536306    2.91908390215540    0.22847855221847
O           1.51745182643122   -0.49897132852214    2.08652237279251
H           1.12442343523144   -1.39425391461920    2.00720939210801
H           1.90595931960681   -0.33378093250845    0.62928369152446
H           0.74802443043812    0.11080827407494    2.09384957031148
O          -0.63605197955952    2.15222506800531   -1.04984859776792
H          -1.56724546354838    2.36686291926201   -1.15974822206413
H          -0.67129801754948    1.53947927331688    0.71922583986710
H          -0.58120027687520    1.21378302388629   -1.32864527879251
N           1.97496013160212   -0.16607855742317   -0.44157174085037
H           2.14105973789721    0.85502828462310   -0.60264118988368
H           1.03852264182858   -0.40442906750879   -0.84688637345088
H           2.69693516587619   -0.73626686143776   -0.86659653034423
