    26
        -50.46725364  Gyration_radius:  2.51626981533 Dipole_moment: 2.171
 S          -0.08488683545902    1.91115465940983    1.02150381105909
O          -1.46686105827872    2.17921376519236    1.30791305949186
O           0.14573523572937    1.51009471352155   -0.36824832973535
O           0.54323923723303    0.97974693176210    1.94499036631683
O           0.68008783080025    3.29645439863906    1.18610640670657
H           0.08931471976804    3.78005952669245    1.75437281018262
H           1.92216860689216    0.16435885585147    1.54011017059459
O           2.69046886357864   -0.41886335998559    1.34352838494512
H           3.18099501132897   -0.48291041259754    2.16419104061020
O          -1.02550444124109   -1.06828350948029    1.14183590217539
H          -0.54657234117208   -0.35560008948647    1.59714901081222
O          -1.60720643349711   -1.28706021934549   -2.57675336081843
H          -1.89566435726222   -2.11219386704013   -2.18031544205938
H          -2.04153626147652   -0.57901657867346   -2.06765091990769
O           1.17086081537802   -2.33469163665337    0.25895012178189
H           0.31657485940064   -2.09105616123864    0.67680437787651
H           1.07338937469002   -1.43814176697956   -0.96031284193301
H           1.84335165287646   -1.81143294221926    0.74542148753468
O          -2.29712499706553    0.58215988153691   -0.74150605202072
H          -1.62862890164042   -0.62501698626620    0.52579887174044
H          -2.85539287676308    1.11228636544998   -0.16477039706736
H          -1.42788084067114    1.03382889533468   -0.70019545537707
N           0.87523019361613   -0.67421776568597   -1.70680384826429
H           0.71308613352686    0.22138830420653   -1.18773283529143
H          -0.01471216602205   -0.92205323477256   -2.19961987418498
H           1.64746898574998   -0.57020774717736   -2.35476646517193
