    26
        -50.45028655  Gyration_radius:  2.64167852745 Dipole_moment: 5.322
 S          -0.11169755494955   -1.42552143852499   -0.66397126945538
O          -1.28595581710141   -0.66492224909566   -1.28803850917265
O          -0.25622404365009   -1.54649320831287    0.75101390221033
O           1.12079437886729   -0.79080194488605   -1.09216312069916
O          -0.22242325603388   -2.80693567545850   -1.32068841717635
H          -0.06299284506447   -2.60842542997172   -2.30890136966581
H           1.43801523197892    0.65556724268269   -0.35576113397249
O           1.48121329797564    1.57483856486786   -0.00696784562627
H           2.31015399463557    1.94578540170496   -0.31399701431156
O          -1.94545727749440    1.78738422561967    1.98019341285439
H          -2.28111692866135    2.62236612294975    2.30959304979530
O           0.80193661419868   -1.01630620362335    3.17758114966197
H           0.12628051019929   -1.33560660147029    3.77870294756610
H           0.49697252699911   -1.26553497868328    2.28684349213127
O           0.59072283771538    1.63015493476315    2.66468914446026
H           0.74704409739090    0.71293385882690    2.97011579273093
H           1.01272033450831    1.67998386253196    1.79449917528537
H          -1.01856925429138    1.70523992687496    2.33163357268126
O          -1.20855307090784    1.70891282783775   -0.53765863073279
H          -1.30896013557693    0.35001568300702   -0.98268108548745
H          -1.61141526184182    1.72069305167954    0.37303069302457
H          -0.25652985226155    1.85732337489636   -0.39464386488761
N           0.29026268852330   -1.81109807920863   -3.62875963301967
H           0.90988923241148   -1.16513873702541   -3.14984114986008
H          -0.52237707634018   -1.30097455576037   -3.94859722219619
H           0.76626660856510   -2.21343999621410   -4.42522607628978
