    26
        -50.46725190  Gyration_radius:  2.51535454112 Dipole_moment: 2.144
 S           1.95790403374687    0.17225268170525   -0.91286615785783
O           1.33558910982507   -0.80681480512273   -0.01880584242931
O           2.66020781704118    1.20994934791003   -0.21036965472427
O           1.00554519346698    0.66172006287592   -1.89695977060318
O           3.05975227466900   -0.64548482109744   -1.71817884268237
H           3.75633991720098   -0.00300774804621   -1.80769365265695
H          -0.23259559398807   -0.28855147339272   -2.43805896607601
O          -1.04017211714175   -0.76003159919213   -2.74566616577887
H          -1.14398608963531   -0.51803876715649   -3.66699888496233
O          -0.54949806521708    1.77935931846850    0.01042356194297
H           0.03469903466315    1.55572237547741   -0.73319534645757
O          -1.05937535957337   -0.28340940037802    3.10836675556859
H          -1.69778973939584    0.43335320934474    3.10999463194486
H          -0.19137796331625    0.13161802860762    2.95544379392154
O           1.15868874736318    0.84249605950664    2.03546828327633
H           1.32558305328675    0.15474003743650    1.35707002412191
H           1.89967479171416    1.44708951855575    1.93150476517771
H          -0.02341980892202    1.62787019141742    0.81037204105328
O          -2.52978422470817    0.10954110238636   -0.70097829406116
H          -1.80617855857081   -0.92945093487106    0.13653597744050
H          -1.98695296643962    0.88747660983911   -0.44939250986819
H          -2.17691038905017   -0.16869406589696   -1.57310333092749
N          -1.11815909020562   -1.53640385156685    0.71726532690238
H          -1.14568370871639   -1.20193913816273    1.70925690637352
H          -0.15764623122123   -1.34739260778861    0.34350470976655
H          -1.33445406685262   -2.52396934086279    0.64706064159707
