    26
        -50.46725475  Gyration_radius:  2.51597454666 Dipole_moment: 2.192
 S           0.69380720795359    0.33824102992024   -2.02782906065186
O           0.21963604928258   -0.84020927224602   -1.29823030234720
O           2.12040749104456    0.49761436451580   -1.97210239697678
O          -0.05295897943737    1.52503921854357   -1.64266291121981
O           0.33825918526278    0.05485824522158   -3.55248694625113
H           1.10076789915944    0.40831885245595   -3.99903796430819
H          -1.63312439994028    1.42232969335852   -1.17158661905478
O          -2.54543716629787    1.43366456431154   -0.80198356442749
H          -2.95251657700935    2.22972554866880   -1.14659211813483
O           0.82309974491223    1.41685618978896    0.91095019169806
H           0.60009002355324    1.62072420286751   -0.01281597175216
O           0.92771690169470   -2.03584834106596    2.42185669503116
H           1.58485658196608   -1.79215178802822    1.74523971902373
H           1.02910143638875   -1.39659052436623    3.13047406909985
O           2.27665910498179   -0.92028273501276    0.35399563383606
H           1.56707726371020   -1.01743551152609   -0.31561676764580
H           3.01329565771275   -0.55836947120789   -0.14766441410716
H           1.45209954727063    0.68034207663279    0.87065447751036
O          -1.71140020001196    1.02978374548592    1.70793602808045
H          -1.50977696866137   -0.41736440490569    1.29851975639543
H          -0.78388187551688    1.33289625148478    1.60054116376608
H          -2.16599513955317    1.32580330360759    0.89057798733363
N          -1.19785635327007   -1.37501310413212    0.89225521642258
H          -0.75086158002606   -1.18002176179413   -0.03526708285091
H          -1.98023944986785   -2.00903295684502    0.77857024911665
H          -0.46282541532628   -1.77387738584445    1.52230491238573
