    26
        -50.46725617  Gyration_radius:  2.51660027518 Dipole_moment: 2.225
 S          -2.16185811436970    0.18531312517279   -0.09564414397244
O          -2.46320793391523    1.49012608028473   -0.61568495655457
O          -1.18535889393957    0.21589850555613    0.99634454027022
O          -1.77998470897160   -0.78640724800627   -1.10753147198629
O          -3.50780783396930   -0.35062794481342    0.56181143258001
H          -4.15949117047454    0.20514871115128    0.14707693111603
H          -0.95344428257608   -2.15847018355933   -0.70167452646283
O           0.49664332264034    0.52248919991492   -1.74008728227902
H          -0.37106465344192    0.08689887362241   -1.69172256288312
O          -0.39109563452004   -2.95279505794632   -0.55393926439464
H          -0.73915323428789   -3.62655331077824   -1.13969309016882
O           2.40129324034101    1.90455105484923    1.21821282608090
H           2.97775575646311    1.94460903771142    0.45190615133730
H           1.56560143944582    2.32560072885186    0.94714019171454
O          -0.05047135947806    2.46479672769480    0.21035362651446
H          -0.75296742829903    2.96287143009592   -0.21821797790724
H          -0.52049334986613    1.70651838114672    0.61737851065001
H           0.41814644116812    1.31990837692331   -1.19436955056770
O           1.89401561876322   -1.59761400744784   -0.87172445449494
H           1.65365486443788   -1.06069697280094    0.52603809851331
H           1.16930704463802   -2.25880985842089   -0.87624662629479
H           1.53742896183811   -0.83448965974862   -1.37642072445075
N           1.32354169578040   -0.56309711586952    1.43349565201250
H           1.81745204233772    0.35759981525784    1.50032809724308
H           1.48106420143489   -1.13468789398977    2.25537522314198
H           0.30049393882807   -0.36808079484611    1.31749534128886
