    26
        -50.46725545  Gyration_radius:  2.51643234754 Dipole_moment: 2.210
 S           2.02855378889140   -0.51087048676818   -0.58162700540433
O           0.72483699398059   -0.61228833422805   -1.24227759189966
O           2.39363025998097   -1.70593285916443    0.12710156826449
O           2.11607037331307    0.70340478013926    0.21349884900092
O           3.08357146253382   -0.35585664102397   -1.76230699290720
H           3.80352289773450   -0.89484777003442   -1.45066406544023
H           1.30680407850700    2.07390715432067   -0.23053404923820
O           0.12705493706537   -0.05590821774344    1.87619505611183
H           0.94984340843078    0.21240639310721    1.43351186172597
O           0.79220348640958    2.89953103981435   -0.38071184337581
H           1.37910259270878    3.61629902943550   -0.13573642743542
O          -2.82010854727232   -1.70122743570565    0.17637202163638
H          -3.08089931965264   -1.48266280341069    1.07384612464091
H          -1.97884730818967   -2.18664280076892    0.25245222577326
O          -0.22193027238297   -2.43007707505096    0.42022347928530
H           0.12720327161279   -1.86181889688852   -0.29859623628632
H           0.54693951022924   -2.93341183133763    0.70441165081117
H          -0.05875324515301   -0.95277818780883    1.55845882701533
O          -1.32123656147643    2.03140218316753    1.01159899704974
H          -0.59504063322079    2.55201750718688    0.60660424732839
H          -1.64437384444297    1.17985017278627   -0.20099483297622
H          -0.86649150842670    1.34444926781139    1.54592550470260
N          -1.70389557441245    0.45479966221808   -1.00771758282473
H          -2.10239687261050    0.85764676874949   -1.84791919333890
H          -2.25885649395242   -0.36606366451720   -0.66958348737748
H          -0.72650687021319    0.12467305574976   -1.19153109486476
