    26
        -50.46725588  Gyration_radius:  2.51660442016 Dipole_moment: 2.224
 S           2.08641022563722    0.60134925269329    0.05043968421511
O           2.58608705672582    0.54652745098550   -1.29536763660418
O           1.36849275305651   -0.61357468945093    0.44472913843422
O           1.30125714278390    1.78864464139252    0.34688789166734
O           3.36532277138384    0.65605913407730    0.99521357227184
H           4.03992406676165    0.94652476161301    0.38991579253836
H           0.26065374491389    1.82651977968645    1.63022230873090
O          -0.67412282422612    1.10896194297599   -1.36592112090772
H           0.05790971044556    1.50374109321878   -0.86266652519525
O          -0.43768732196640    1.89927605532625    2.32012447311508
H          -0.37725849589994    2.79562351598848    2.65346434560905
O          -1.60471222593193   -2.55699232372245   -1.32790923008009
H          -2.28902091438233   -2.08438568857225   -1.80707142268143
H          -0.75942763208174   -2.28049454068344   -1.72561707020092
O          -2.34928642117775    0.92416689642775    0.72178741966261
H          -1.92137704306460    1.11232228594630   -0.14185351735843
H          -1.72917092260620   -0.43598786307942    0.97657715439988
H          -1.81872360193217    1.42635222373652    1.37647731178123
O           0.67457936262037   -1.26387097866210   -2.01670571182408
H           1.38236236183196   -0.92503837428993   -2.57309589403674
H           1.01818941489425   -1.14118793049321   -1.10653118878110
H          -0.30725210519678    0.31069811302242   -1.77592948340318
N          -1.12551333840883   -1.33730669998838    1.03425446650259
H          -1.36388189091065   -1.94369042192262    0.21479627842571
H          -1.25781438140773   -1.82407444174613    1.91320918492661
H          -0.12593947183132   -1.04016320442810    0.93056978877448
