    26
        -50.46725594  Gyration_radius:  2.5158700564 Dipole_moment: 2.218
 S          -1.73119719074925   -1.25778613378933    0.36721181605205
O          -1.39935750902450   -2.14817523066238    1.44465343996679
O          -0.70644141281683   -1.21800129161805   -0.67910934544949
O          -2.09216872890799    0.08474766498391    0.79320132546445
O          -3.02045009871901   -1.87217669730947   -0.33383296530038
H          -3.35675329797229   -2.44482489334549    0.34781363125816
H          -2.03642103047500    1.35397550154765   -0.26294471586702
O          -1.94980160372213    2.17086752064100   -0.80537883831152
H          -2.69538979030728    2.72131908959610   -0.56200080912747
O           0.38297581806881    0.62164823086648    1.73252411538068
H          -0.56111512251474    0.45238006044467    1.57453227757401
O           3.20961852029918   -0.60362485749922   -0.43854084414005
H           3.57030512327506    0.00565223419420    0.20958190778057
H           2.68143601532049   -1.24889618944757    0.06520575488703
O           1.27004679525343   -1.91549336626735    0.92456066339876
H           0.55587925702772   -1.78812472381213    0.26488385749196
H           0.82398217428054   -0.23354034436134    1.61410941692084
H           0.86268915453164   -2.47308061203585    1.59423158957336
O           0.60750578935472    2.55336816455285   -0.11759183968429
H           0.92858136124110    1.44000358325324   -1.09672604232087
H          -0.34218874156224    2.64600998444673   -0.34515161559250
H           0.61506241799759    2.01896919118198    0.70604931909728
N           1.06913947505949    0.51465553676600   -1.64780572447476
H           1.05080097511902    0.66602466552308   -2.64967863023760
H           0.29252332598242   -0.12882305107376   -1.36338391064862
H           1.97073833396473    0.08292596320693   -1.33641384369200
