    26
        -50.46619999  Gyration_radius:  2.47655941071 Dipole_moment: 3.171
 S          -1.08011271132797    1.72123102586283    0.10374315001410
O          -0.71457400241017    1.18234393658528   -1.19107205909460
O          -0.04198673905036    1.49284829889489    1.10480463489017
O          -2.39028092766755    1.32209812548036    0.56851974096393
O          -1.14919751188729    3.29579925782715   -0.09992042476474
H          -1.67220296403640    3.58214718513074    0.64170964307720
H          -2.58332818756856   -0.27632934024326    0.74969861279548
O           1.07748152730147   -2.18526396182139   -0.07763334998138
H           2.07174391100821   -1.30630480336164   -0.46751429468189
O          -2.60820969177688   -1.25917571708283    0.85185249702637
H          -3.50166581414629   -1.47819380070867    1.12048676045938
O           1.77884847757736    1.81322846505159   -0.71911695594467
H           0.99853074556584    1.72319121619902   -1.29626261013496
H           1.34562093141152    1.83039856339488    0.16000411630001
O          -1.04184319367959   -1.47801781429590   -1.43009443235572
H          -0.94659463997772   -0.50866145856379   -1.49171326614007
H           0.30861717924343   -2.03891993610490   -0.69620401304600
H          -1.71762048738203   -1.61592393981021   -0.74740130753142
O          -0.07124677025055   -1.04816305908420    1.97465468528865
H          -0.99282456861127   -1.28795273423001    1.78938135487737
H           0.73395281385181   -1.85122476922564    0.79687311613192
H          -0.01362189601005   -0.09345039804299    1.77630854952291
N           2.88511378633900   -0.56341308912383   -0.78691876335964
H           3.66434913609988   -0.61293723171881   -0.13925767259420
H           2.46244254962214    0.42463951980284   -0.76875940492413
H           3.19860903774891   -0.78399354080877   -1.72616829678855
