    26
        -50.45538180  Gyration_radius:  2.56579897278 Dipole_moment: 4.089
 S          -0.49472155281873   -0.30990013074422    0.87178606412846
O          -0.46201707589683    0.06191789319693    2.37037140875849
O           0.64875569129326    0.39479075998280    0.24079282268136
O          -0.36600609138325   -1.73838146368945    0.71886152337760
O          -1.74096765032273    0.23203357767542    0.33549441697071
O          -0.50553807730676    0.25242433912163   -3.35645111365946
H          -1.23321513346556    0.52110607600540   -3.92094642306048
O          -2.01552402316330    2.62832624883697   -0.59826426926964
H          -2.06159003757740    1.72140353752546   -0.19726162788268
H          -2.03467742857124    3.24610185422114    0.13492457406135
O           0.98915532315096   -1.91809678879607    3.03391993713021
H           0.09863534013645   -0.66095085116524    2.80263931634204
H           0.55008810151186   -2.35858236963429    2.29055162863060
H           1.84632477876285   -1.59440804948400    2.66100495792269
O          -1.57267542801398   -1.45846396810071   -1.69588429763075
H          -0.85670597201482   -0.48634661369144   -2.78587040283240
H          -1.00458063694621   -2.01752765805341   -1.14895000404328
H          -1.94171372612870   -0.83830510268437   -1.04160861955246
O           0.21461709310774    1.94775682895471   -1.61383173863269
H           0.47289207261361    1.28796100202579   -0.80085044234063
H          -0.02371376002262    1.30502068634655   -2.38914655162120
H          -0.66492534170683    2.36462052390964   -1.29716538532470
N           2.93264985004956   -0.79411957467400    1.55291085639933
H           2.20646196588224   -0.33102309519705    1.00721241531720
H           3.46365170579313   -1.37891996560762    0.91982734283281
H           3.55534001303962   -0.07843771628971    1.90593360128931
