    26
        -50.46725430  Gyration_radius:  2.51551547475 Dipole_moment: 2.183
 S          -1.94535890590404    0.94979347138372   -0.13495723019862
O          -1.17331186363047    0.08285327047920   -1.02831241410625
O          -1.72249137210743    2.34819249006777   -0.37717799826963
O          -1.77489902509506    0.55215546222135    1.25335935408861
O          -3.46877419390917    0.67298969936652   -0.50101855796945
H          -3.84769431729564    1.54323627835241   -0.42981655920948
H          -1.49990068941064   -1.02450775288269    1.66260835588159
O          -1.25151611529388   -1.92309585009676    1.97874121003240
H          -1.71941133342632   -2.04292210306055    2.80632139064169
O           0.86746810220443    1.11550142701693    1.22725000842481
H          -0.09215521292511    1.05018857622354    1.36649520668325
O           2.70610954521833    0.05494972862472   -1.87863101466819
H           2.09823726506362    0.81480881976018   -1.92394996769914
H           3.35111057718918    0.27302346938445   -1.20216609071035
O           1.37063566548148   -1.48275061458266    1.68061582095783
H           1.35262447240823   -0.50130109248256    1.69186796982918
H           0.47798582104700   -1.75135193502143    1.98621169002195
H           1.12923754623265   -1.68129979091059    0.19562060003439
O           0.72607967330290    1.86008259841872   -1.47684228877212
H           0.28952858274664    2.71419752610888   -1.40410520369588
H           0.97688913870664    1.50040217446789    0.34427970587623
H          -0.01554692788704    1.21917905746455   -1.45430732515503
N           0.85968145915591   -1.62907427931143   -0.85507781247674
H           1.61398277832383   -1.10655509943939   -1.35947960193150
H          -0.01778843007304   -1.05944560425632   -0.91535153760982
H           0.70927773988608   -2.54924993728574   -1.25217771998598
