    26
        -50.46725492  Gyration_radius:  2.51569344928 Dipole_moment: 2.195
 S           0.08274962434823   -0.92256277653820    1.96224652691197
O           0.60293687619913    0.32797691543920    1.40409866029926
O           1.02394281074795   -2.00538992591982    1.88866724434050
O          -1.22677808065061   -1.23382340629350    1.41197163077842
O          -0.13523503945150   -0.62860355910819    3.51059288491528
H           0.14325041461816   -1.44859605842967    3.90526069963062
H          -2.26764204695926   -0.03442592973870    0.95690730791856
O          -0.26560847361802   -1.49572231620046   -1.09917153483056
H          -0.65630642566882   -1.58438870852801   -0.21360198267026
O          -2.90676759577521    0.61679103332222    0.58747785318959
H          -3.77522007616221    0.28286998091624    0.81632650088364
O           2.28426134821381    1.08345073646554   -2.11342374592484
H           2.53611100619170    0.39122440011271   -1.47587544297474
H           1.99061262177937    0.62165845245068   -2.90193553638005
O           2.32039950696912   -0.85090972847650   -0.21678680995817
H           2.56621464137282   -1.66592087798873    0.23110326897672
H           0.68766306816965   -1.39512696608005   -0.95440787889640
H           1.80260420531353   -0.36376964685663    0.45847721202513
O          -1.77939432524921    0.59434219084277   -1.83885253717633
H          -1.31591452107912   -0.26856401718677   -1.77277650974107
H          -2.39170893357811    0.60697395116189   -1.07256782040767
H          -0.69581632302938    1.46424322766742   -1.22931721586033
N           0.13940401835381    1.90400264087414   -0.69222186692095
H          -0.01540810512412    2.88543123792057   -0.49269325334118
H           1.00683114389891    1.75462933424868   -1.25922793484518
H           0.24481867015498    1.36420981594146    0.19973027006628
