    26
        -50.45538180  Gyration_radius:  2.56576007722 Dipole_moment: 4.091
 S           0.17167835270684   -0.61544082477731   -0.83209916121397
O           0.06392573368887   -0.46950377858779    0.64076208146152
O          -1.12777164997326   -0.53655255556114   -1.45304264807893
O           1.12885662429593    0.36564885011406   -1.33782284750725
O           0.79116501929337   -2.00682321694935   -1.08752535943143
O          -0.26206567087998    3.29247953297227    0.82061942829477
H           0.20118245428247    4.09766496984932    0.58097096903725
O           3.08077698678523    1.35489977492841    0.04074475969292
H           2.42641255697110    0.99457979224009   -0.61306724631502
H           3.76818222150991    0.69154232373880    0.12438290999572
O          -1.45103372954519   -3.19686998412066   -1.23923862004040
H          -1.76475666276693   -2.34521913478920   -1.57936249087432
H          -0.00173734666550   -2.62845607927089   -1.18008874402847
H          -1.68254836180497   -3.18182777713193   -0.27759804203132
O           1.18609306387277    1.42294967919924    1.73581957191931
H           0.59533309280328    2.22401717113631    1.45275678269863
H           0.67820672455222    0.56731410238147    1.32012346373029
H           2.04022816057656    1.47501163836738    1.17415931006876
O          -0.81529327508470    2.15903089891747   -1.46683939710789
H          -0.58665094430388    2.89550142275304   -0.03483095296961
H           0.03057932005744    1.70425729931862   -1.62967180812412
H          -1.44875317859279    1.42965630265511   -1.50166701948483
N          -1.78352644652145   -2.57358622881469    1.35591574558768
H          -1.15227886724557   -1.78527453449374    1.21561342945386
H          -1.41165900632887   -3.13432630874365    2.11211983953942
H          -2.67454516169087   -2.20067334529267    1.65886605573931
