    26
        -50.44910292  Gyration_radius:  2.52668018792 Dipole_moment: 7.158
 S           1.01088804945099   -1.23094667318015   -0.23538514458943
O           1.13906925596834   -1.38837075486770    1.17109302708104
O           1.82430419752972   -0.05366059939334   -0.77635302651371
O          -0.36330617110139   -1.07216094383227   -0.70691876024859
O           1.63327923820007   -2.42752560141258   -0.96554635992917
H           1.47406262374268   -2.22107950410258   -1.94976580839022
H          -1.17613872160171    0.37583039452095   -0.62525219289898
O          -1.57943466252291    1.27060766074334   -0.56215099793726
H          -2.32835273579548    1.28225047309741   -1.15990159051809
O           0.58134537196713    1.89648693844795    2.64965450791453
H           0.55311773657041    2.65992091245181    3.22791767641755
O          -1.51484863063211   -1.59274455011231    1.77832089285368
H          -1.38720150474874   -1.55149774930484    0.82134415389155
H          -0.61670736156161   -1.68965947913964    2.11983392613074
O           0.95918549705106    2.11738986854562    0.07121787421780
H           0.94520314909310    2.05846753550803    1.06566990252122
H           1.51403053082359    0.89061026028231   -0.39421199577680
H           0.02763965331419    2.07317050604064   -0.20166858884283
O          -1.88643464522746    1.05302477997452    2.22847680792726
H          -1.95289821916323    1.28586312329561    1.29107159047332
H          -1.87140220474542    0.07386464203936    2.24257457544101
H          -0.34351624348004    1.54106879999621    2.61020103760778
N           0.95516477779686   -1.49963805400975   -3.26504659719449
H           0.07485399662168   -1.19195234513341   -2.86804721338457
H           0.78816556822006   -1.96980668627668   -4.14466836785349
H           1.53993145417718   -0.68951294417727   -3.42245932835993
