    26
        -50.44910306  Gyration_radius:  2.52660666209 Dipole_moment: 7.162
 S          -0.23485654331268   -1.58715975039162   -0.12202227319369
O          -1.59867427882846   -1.10910035874194    0.37987542921927
O           0.69537595812402   -1.79973445400266    0.93110617378097
O           0.21241188545795   -0.64776682123827   -1.14824033496037
O          -0.58028402577316   -2.91586175645151   -0.80591456238845
H          -1.23120500412742   -2.64846091723686   -1.54145136031879
H           0.13059039094614    1.00057329691850   -0.94762693727534
O           0.02860888104416    1.96080456643503   -0.76096625964609
H           0.07494435715527    2.41556054989828   -1.60319825955740
O           0.59807734814158    1.17074265505252    3.03730589420083
H           0.67098996432125    1.80013060710372    3.75604347927685
O           2.79525624884692   -0.41093263924391   -0.12370972711878
H           2.06196276986990   -0.44485569596662   -0.75208008265366
H           2.52011138229884   -1.01936123715171    0.57408026884627
O           2.17386047573855    1.94394021681416    1.06303545418063
H           2.59862813129287    1.14311096138516    0.69222257204367
H           1.48674092324258    2.17864664818826    0.42263760075561
H           1.28479944779254    1.42762766699406    2.36968995473404
O          -1.44963919276200    1.14810730729673    1.41061875529774
H          -1.56483959322459   -0.16619108642246    0.87389785066964
H          -0.75098186442869    1.10052214308190    2.11930421451976
H          -1.04937904810701    1.66229026515218    0.68972796725049
N          -2.11055420833896   -1.75073325331424   -2.51186143353980
H          -2.39678981243222   -2.02736996241825   -3.44153208175847
H          -1.44651557757781   -0.98728488421798   -2.57045523282199
H          -2.91863900535613   -1.43724407751831   -1.99048704948571
