    26
        -50.46862862  Gyration_radius:  2.47498058201 Dipole_moment: 4.023
 S           0.60439851819059   -2.15701364110770   -0.16711491711823
O           1.07535304864415   -1.24686724098768    0.89085889025461
O           0.64875550455752   -1.51988902606070   -1.45479575273090
O          -0.66400764018064   -2.76429959770135    0.17884801147547
O           1.65266614153225   -3.34986861327043   -0.19228239834330
H           1.27794439203141   -3.93647100280818    0.45611817610158
H          -1.70180222381001   -1.55994091276228   -0.06869687623664
O          -2.30958419466590   -0.78223049155340   -0.12752328367172
H          -3.12809449075710   -1.11276398799386   -0.50179383793814
O          -0.20090371703671    2.39397643003289    1.29355761625634
H          -0.33948020534228    3.05716887056467    1.96985348290206
O           0.88271087732004    0.95938398486491   -2.40174434932640
H           1.53054109637820    1.12078060420485   -1.05281105275283
H           0.80837593067687   -0.01201976535814   -2.35045056659891
O          -1.39342176338234    1.61537085772937   -1.18076957424571
H          -1.74726015397552    0.75848369691521   -0.88682083092344
H          -1.09846518435531    2.06637288706485   -0.37814570316730
H          -0.01940856199593    1.28566102143391   -2.17501366905583
O          -0.93437536581314    0.04192669684497    2.11626199004523
H          -1.66374068036771   -0.20771976050422    1.52844579539533
H          -0.18606236640048   -0.51559249137505    1.82393814138538
H          -0.51879427909187    1.52388801758108    1.67873138300348
N           1.81864021217485    1.10868565667985    0.00050358691182
H           1.20043351761590    1.76371151836788    0.51608121619898
H           2.79698319978742    1.33781049317873    0.13112666470393
H           1.60859839827027    0.13145580602595    0.35363787747189
