    26
        -50.44910293  Gyration_radius:  2.52664717829 Dipole_moment: 7.160
 S          -0.22112588920430    0.11920544741965   -1.58984577609092
O          -0.05424684152789   -1.28663558332665   -1.71311368612998
O           1.10503537079085    0.85917723754410   -1.40513342511344
O          -1.11248430223348    0.53360121557158   -0.50835089859495
O          -0.75136713268674    0.71100282761708   -2.90173970411460
H          -0.84745590519063    1.70406876557398   -2.69888099824384
H          -0.62032232506521    0.60697037209778    1.07824517702570
O          -0.24652104067959    0.64481561414584    1.98710237037620
H          -0.83116089062277    1.19814215820623    2.50707495644217
O           2.11677355799964   -2.33122000627477    1.02082447785172
H           2.72219814234791   -2.80128061081494    1.59575171041475
O          -1.93569705360252   -2.05762908914157    0.10854454121701
H          -1.34323044490862   -2.35980267299454   -0.59176569806350
H          -1.94928675066475   -1.09846656015219   -0.00821409107605
O           2.18376682393931    0.26992880734610    0.75586376796415
H           1.47729114298310    0.48376147450349    1.38784394003471
H           2.26715402843725   -0.72252665525845    0.78014522550720
H           1.62130947651351    0.59308961090445   -0.51265099466072
O          -0.23395152642427   -2.16188219721089    2.21428511645999
H          -0.92309777902318   -2.30854071785141    1.53400906294105
H           1.22354272162308   -2.39006892728316    1.44738986231584
H          -0.23999057679060   -1.20643409087595    2.37052880621821
N          -0.86656717606217    3.07596842322231   -1.90054821149487
H          -1.43811374253821    3.87226544516540   -2.14957064249355
H           0.09216757767178    3.37480971583093   -1.77962788730468
H          -1.19461945503864    2.67768000591546   -1.02816697150883
