    26
        -50.44910272  Gyration_radius:  2.52682735591 Dipole_moment: 7.154
 S          -0.36308010866277   -1.56499742175693   -0.11270686026571
O          -1.75092103761679   -0.92188593591763   -0.13591182421566
O           0.12651320646590   -1.77019700222993    1.20542981409843
O           0.50990108986066   -0.76326740836063   -0.96781196762209
O          -0.60966346787047   -2.91054567301557   -0.80634906449212
H          -0.93767134943326   -2.64905567854728   -1.73399533010535
H           0.55761744865711    0.89695899774453   -0.89415958055687
O           0.51156248964847    1.87526588833097   -0.80448974954103
H           0.89694983774360    2.24713556182331   -1.59924895125688
O          -0.33315230435300    1.37599454916158    2.99229201499796
H          -0.43395035570702    2.05769173218407    3.65800356602940
O           2.60498579521503   -0.67475845422690    0.86899556779017
H           2.04612724675213   -1.19379791783982    1.46130894499484
H           2.12435686770987   -0.69678916957420    0.03085658313112
O           1.89598848863568    1.82224070588480    1.64676633410262
H           2.32526712127748    0.95659237613061    1.48687670906707
H           1.49778604435103    2.06132437748201    0.79728769084075
H           0.56381063074050    1.50778349123623    2.59064636092591
O          -1.69840591964251    1.39632663162390    0.76148128818511
H          -1.02149958188527    1.80605281961370    0.19755369339800
H          -1.77660537920493    0.05434357913521    0.28804755659839
H          -1.29106281729271    1.34867914037518    1.66945383929505
N          -1.32413608720386   -1.76303944637909   -2.99303392317717
H          -1.30260223782881   -2.09337388090832   -3.94858538910884
H          -0.59737262934419   -1.07064321861515   -2.85301222453075
H          -2.22074298102941   -1.33403867331740   -2.80569507853954
