    26
        -50.46354094  Gyration_radius:  2.5918526221 Dipole_moment: 2.434
 S          -1.79234020419813    0.84266715265467    0.99608824802109
O          -1.84711287780600    0.35491308107179   -0.38784066382091
O          -0.53238607648406    1.49515518228720    1.26762561678521
O          -2.17977718350745   -0.17294510900502    1.94901561282820
O          -2.90176209291435    1.97686756194362    1.08950912018118
H          -3.70231135429843    1.47763792684601    1.21573005055668
H          -1.11237277559297   -1.39130140922874    2.12536409268079
O           1.85669503931097   -0.63891658397388   -0.85126636709996
H           1.03706774990777    0.63483231880125   -1.07781426409227
O          -0.42838214056631   -2.10357060378928    2.14355792695271
H          -0.69800987502052   -2.71803922019772    2.82769735954352
O           2.07147700584537    0.88459269685378   -3.30594007766109
H           2.29122099607382    0.21623208905518   -2.64266710059373
H           2.46763523861729    0.59370533746127   -4.12793511269435
O           1.55147754613351   -0.19678135914039    1.73208707838035
H           0.88334756674305    0.51058370592657    1.69335015051157
H           1.06147073912305   -0.98103761617703    2.02313726391894
H           1.99299975325165   -0.52409621763317    0.12165606070267
O          -0.41759378588056   -1.96960061439768   -0.62633071895258
H           1.11260861122149   -1.28873969744125   -0.90558890721463
H          -0.38648954251582   -2.26471209558543    0.29734785217347
H          -1.05726311839990   -1.23693669587429   -0.63699954172130
N           0.35004509684526    1.46194730609157   -1.22151926520182
H          -0.61802825425835    1.05730631450885   -1.09381999996570
H           0.52893595861802    1.85134737461768   -2.14624214779779
H           0.46884795970430    2.12888916425702   -0.45820225646302
