    26
        -50.46354083  Gyration_radius:  2.59166163698 Dipole_moment: 2.426
 S          -0.60804905867323   -0.41866238636822   -2.09010760265233
O          -0.21043971767743   -1.55434314737358   -1.29063809422068
O           0.18458465359322    0.76979701855857   -1.75054681966901
O          -2.02682640409337   -0.14224275230505   -2.10771949086584
O          -0.21325092201256   -0.77743371434933   -3.58717323516494
H          -0.75352211275714   -0.18071062392973   -4.09519390595773
H          -2.69338250819482    0.12651459651266   -0.64530149075536
O           0.62616592377309    0.16633274735054    2.03917728542419
H           1.40935945801342   -0.21555096483680    0.77948971725659
O          -3.00504685716473    0.31005608468841    0.27370548079860
H          -3.95461311541770    0.42616046819727    0.21780120495256
O           3.49499575683877    0.52736696623553    1.87272830994181
H           2.61768165411343    0.48600319504782    2.27716144459073
H           4.03782471925934    1.06144170712145    2.45360485199431
O          -1.19993673651077   -1.56550569336001    1.24715924330160
H          -0.87205316620206   -1.73969074713716    0.34688139254235
H          -0.04713313049947   -0.55638468633060    1.98696393282502
H          -1.98012945830344   -1.00431997437587    1.11969431169977
O          -0.74375055205755    1.88763130308777    0.57147306467503
H           0.15203141887461    0.95200969481818    1.66931167521180
H          -0.41788026798551    1.66656995723982   -0.31793820233147
H          -1.63918785987315    1.51652149928099    0.61236423837578
N           1.88783531407120   -0.40047735444977   -0.17629448469729
H           1.70202189965327   -1.36311679628628   -0.45989747553611
H           2.87753497004620   -0.18122704675294   -0.07056538868054
H           1.37516610901154    0.20326064978358   -0.87613995293131
