    26
        -50.46354058  Gyration_radius:  2.59103937295 Dipole_moment: 2.435
 S          -1.07563357832593   -1.93450943505608   -0.08979400377769
O          -1.53063510108665   -0.85021546184125    0.78970180658923
O           0.36693216078108   -1.99082817988645   -0.14081515459867
O          -1.73880416786572   -1.91103060222346   -1.37411020109552
O          -1.54187665919797   -3.27858746447778    0.61871654445854
H          -2.45330329340314   -3.35036697229187    0.35377399391385
H          -1.30392297109396   -0.68057659946856   -2.34966190928912
O           1.24753646328036    1.73516619509235    0.07319810502051
H           1.05425260303046    0.60001590156364    1.08225447361551
O          -1.00935329115048    0.11329255469369   -2.85812531427233
H          -1.42765844383551    0.05241278837495   -3.71812417756106
O           1.74991101661058    2.12364043272978    2.89931187881877
H           1.74866239375289    2.32145700723791    1.95294723735619
H           1.83455806892996    2.96280112273552    3.35299570640233
O          -1.32536806062402    1.55259160970644   -0.50886475329829
H           0.29304694729678    1.89725613757647   -0.13084370490889
H          -1.30053102550608    1.26379754900448   -1.43474892175337
H          -1.56946889979562    0.75918052140706   -0.00184035217331
O           1.53264938540691   -0.13845427155040   -1.76190945526449
H           0.79192005842053    0.04013444378526   -2.36129274823108
H           1.55423343273567    1.17604657032214   -0.68304127391368
H           1.24722767448460   -0.91029464216405   -1.24120410330661
N           0.79133129865849   -0.20499825393855    1.76044530502738
H          -0.22687108641005   -0.41817858342757    1.57241326151534
H           0.98927323773196    0.11668676648679    2.70719878581075
H           1.30189185715554   -1.04643911437028    1.49141897493955
