    26
        -50.46862810  Gyration_radius:  2.47535195192 Dipole_moment: 3.994
 S          -0.93010755131386    0.33379025108191    2.01753800402551
O          -0.91757510564853   -0.96166905174294    1.31711389205445
O          -1.27788841985508    1.40233335817053    1.12127824497192
O           0.28325158056547    0.53819512625544    2.78150311979417
O          -2.09271629441797    0.21895410964345    3.09341691658675
H          -1.61903555635018   -0.13999993361872    3.83621973097671
H           1.35878100237785    0.89462984595419    1.63922141629212
O           2.02507057742827    1.01159641889183    0.91802176594499
H           2.63379699861742    1.68538163514175    1.22581817479701
O           0.92503876966288   -1.55544146076350   -2.04316880962921
H           1.35625025199754   -2.25457811069755   -2.53476972847195
O          -1.42723148752913    1.77265620630158   -1.51321821090292
H          -1.60248048632591    0.27954631317749   -1.43633776308902
H          -1.48194155542705    1.91938564088239   -0.55031056570925
O           1.18234544349101    1.26978691570676   -1.71181179167683
H           1.48354236644587    1.26202434540830   -0.78703559681360
H           1.21407116585238    0.34938292778234   -2.00563148042511
H          -0.46179064580972    1.80041577018255   -1.71032794098577
O           1.53254166102902   -1.66647063881691    0.47994567466552
H           1.21868723798545   -1.65576243788511   -1.08914634763515
H           2.00414258570383   -0.83818230447356    0.65689932503722
H           0.65912100818176   -1.54277015337545    0.90196905327574
N          -1.55406096526211   -0.79058400801214   -1.22441507121940
H          -0.72124689931231   -1.18184945119784   -1.70448505472528
H          -2.40281558205042   -1.27218392127717   -1.49713624111791
H          -1.38775007003409   -0.87858738272191   -0.18115071602865
