    26
        -50.43974022  Gyration_radius:  2.42992726242 Dipole_moment: 3.754
 S          -0.77659172925962    1.44742093930275   -0.74301192043840
O          -1.42910718311419    0.16358986078727   -0.78425027750273
O           0.67979037084664    1.35600265911135   -0.68813255299084
O          -1.27622992253761    2.31213901466286    0.31849213037816
O          -1.12368784702020    2.18929754804365   -2.10151047878462
H          -1.01793012029612    3.11155921744197   -1.88767877768060
H          -0.84827729493213    1.65545843697084    1.65974819367995
O           0.59984215340571   -2.30608894608364    1.41271293206968
H           0.75853946824677   -2.76279317677570    2.23977368668002
O          -0.48384922159298    1.18316951167004    2.46741838056178
H          -0.33092959403331    1.86584843624686    3.12411927611974
O           1.98804947478114   -1.50529100184800   -0.88876334096726
H           1.48792768895672   -2.29061559641989   -0.65654573297216
H           1.53854966791041   -1.12250981123357   -1.66417906781065
O           1.51923335775346    0.08614677910786    1.27511148661252
H           1.32787816990258    0.53279300752292    0.34769848831729
H           0.79216921589624    0.47178412463130    1.86844298401700
H           1.33371438820442   -0.91936642115247    1.15928980784288
O          -1.75891376017139   -1.17590545351672    1.49645199829731
H          -1.65186222170303   -0.43161667421938    2.09969459998670
H          -1.79061074524102   -0.77917716734759    0.60273710306226
H          -0.35014619353176   -2.01015860601707    1.41920422841761
N           0.39146289846962   -0.45419557648783   -2.93079351722517
H           0.05918831402295   -0.70053173037275   -3.85526149388011
H           0.77401743897633    0.48207937730443   -2.97739026274899
H          -0.41222677430921   -0.39903875150038   -2.31337789314629
