    26
        -50.45034905  Gyration_radius:  2.65652597926 Dipole_moment: 4.684
 S          -0.98049724154526   -1.48718828651219   -0.70368444929780
O          -1.77017047470771   -0.62263399273695    0.16920785122543
O           0.12249283804186   -2.11576315225613    0.02621066329756
O          -0.49495005583325   -0.74605984060982   -1.86361799986027
O          -1.88619515078519   -2.64592439666196   -1.20172761636999
H          -2.60983219914050   -2.16464146683584   -1.67610660507182
H           0.62396730388082    0.27193375829580   -1.43047517402267
O           1.24469432750719    0.98327727660803   -1.10200646572075
H           1.42293623177434    1.54119076631801   -1.86077153272657
O           1.14813394690307   -0.87075824268933    1.88482900681927
H           0.71943474123907   -1.51244469735992    1.14600798957659
O           2.10936802243568    2.31064792138148    2.34645629174866
H           2.15933181791036    2.34551273610404    3.30270050410744
H           1.17776079723042    2.19031867317527    2.11659566468695
O           3.08909327999398    0.29169422531293    0.78330790000221
H           2.05825047555079   -0.54579721435994    1.47920203635830
H           2.61792519754237    0.48594215190016   -0.04933175143743
H           3.02786274540400    1.11037954413980    1.31077455679932
O          -0.21621625059200    1.16825415504084    1.18798526804106
H          -0.96915942962520    0.59611636330172    0.88408821660722
H           0.55763907258119   -0.03433508654600    1.79741504496711
H           0.27988322093571    1.34166901521304    0.36386246858955
N          -3.35605647014649   -0.73968574149817   -2.21301041065513
H          -3.36567649683693   -0.31698860585024   -1.29088171432204
H          -4.18014604839383   -0.44642095364507   -2.72264226963342
H          -2.52987422134609   -0.38829491924594   -2.68438747370866
