    26
        -50.46862860  Gyration_radius:  2.4749617347 Dipole_moment: 4.019
 S          -0.99354733245983   -1.97402527284858    0.40072728531962
O           0.33620468466914   -2.17183954635067   -0.10773482877688
O          -1.65328379863567   -0.83944448197000   -0.26763092248202
O          -1.09588028252567   -1.87554742113174    1.84199659812171
O          -1.84842226030742   -3.25167315746389    0.00155702600950
H          -2.50705396649771   -3.25312731550390    0.68804321348003
H          -0.01093460125458   -0.73907928302957    2.18784266970059
O           0.01251591973013    2.63715265816371   -0.70113330990668
H          -0.22223044838668    3.56203154646792   -0.77797506674208
O           0.58338875752846    0.02978153647178    2.37066058905555
H           1.04129559489402   -0.17707652034037    3.18726227223251
O           2.10283892326274   -0.79739093550324   -1.55334830614883
H           1.67217476245316   -1.51223051521810   -1.04816918428040
H           0.81914894299136   -0.15214150938330   -2.00262670204483
O           2.16256321943699    1.07402569547208    0.34294098389763
H           1.58273029838096    1.76617521230717   -0.00233728424058
H           1.67593048348890    0.66510364208212    1.07905579930887
H           2.36904785909099   -0.14039983364227   -0.86833721597900
O          -1.41825825384160    1.44994522297403    1.11290545202969
H          -0.77870540712522    1.16512547071049    1.78348591651210
H          -0.56766296401097    2.25554510735948    0.02284855613033
H          -1.67555924755662    0.62383182040844    0.65732368209025
N          -0.16518148424401    0.31053245610528   -2.09996115888663
H          -0.09892949881105    1.29246442334308   -1.77035926570871
H          -0.80315151578017   -0.20580401638344   -1.42904606241618
H          -0.51903839448927    0.25806501690155   -3.04799072628089
