    26
        -50.45054796  Gyration_radius:  2.51965589939 Dipole_moment: 7.509
 S          -0.36290465769951   -0.95648341315342   -0.94297372356963
O          -1.53041522532549   -0.40128053096102   -0.32980232278409
O           0.70592637069479   -1.30694709403275    0.09942602630672
O           0.24910783042474   -0.09333664609381   -1.93473733235461
O          -0.68404918971640   -2.30855095771873   -1.57009420593083
H           0.21166708294365   -2.59432733254175   -1.99018422864392
H           0.39042616751073    1.45054518200167   -1.35100904789755
O           0.53188768909208    2.29387949281975   -0.86322458922321
H           0.98481355680544    2.88636532277044   -1.46599946500145
O          -0.72502786282843    1.41076407661037    2.84871110968632
H          -0.90311281370766    1.99714065883754    3.58448836123285
O          -1.57376017981750   -1.30257425308045    2.35667932169074
H          -1.28191080202284   -0.46332356642826    2.73327471335115
H          -1.70675607529484   -1.13211872381536    1.41776495185685
O           1.36496633426216    0.80673423443008    1.28587654856510
H           0.70104282598667    0.95996228802559    1.99267604641553
H           1.00863894613596   -0.47729528877342    0.65512075226965
H           1.18177368770982    1.47676480364022    0.60193028213829
O          -1.86534154145463    2.15780711699270    0.58692178588000
H          -2.03601611663860    1.26528426408053    0.24670229818163
H          -1.25210613014608    1.74414418437910    2.07728391077945
H          -1.11732840921289    2.47961153826059    0.06357639501732
N           1.68930943205229   -2.54725757376655   -2.47419433213671
H           1.70924859643620   -1.54702337328303   -2.64227823052993
H           2.01575724901911   -3.04049238017853   -3.29458277546094
H           2.29416322481391   -2.75799204895076   -1.69135224977821
