    26
        -50.47200634  Gyration_radius:  2.49877231149 Dipole_moment: 3.922
 S          -1.66661403544266    0.61340073656913   -1.29265472601183
O          -0.29641786175510    1.03147484009206   -1.49343342028591
O          -2.10666368551840    0.79702971209058    0.08917859762782
O          -1.94958421917871   -0.72610636120522   -1.77102447657000
O          -2.55546751750431    1.59114304784007   -2.16698466930937
H          -3.40255308583501    1.15855151987756   -2.15062107058598
H          -0.97858823233622   -1.83608986060857   -1.16813314224461
O          -0.36111937325701   -2.46907274574984   -0.71351837444340
H          -0.63707307907525   -3.34612530925186   -0.98472123606113
O          -0.22548189924284    2.54199582014318    0.66724509170742
H          -1.09564739748989    2.09575322762732    0.67241631922789
O           3.11759235558934   -0.19235644408992    0.64249690005289
H           2.65160105048159   -0.35886377809020   -0.22374301815820
H           3.62034752948877   -0.98662434976789    0.82659500448870
O           1.69365309776898   -0.77330615489860   -1.47036482129891
H           1.13434324161421   -1.53281133156327   -1.24307958280885
H           1.06221029051845   -0.04377737648413   -1.61508042087599
H           0.07777024394925    2.35146002422146   -0.23619609201067
O          -0.91547321738219   -1.06175014612961    1.56033186637509
H          -0.66261444621326   -1.71211615680237    0.88084223047496
H           0.27892906202241   -0.10749380695421    1.93916346334764
H          -1.49763800782820   -0.42417122107633    1.09335991348006
N           1.01507247405478    0.65842891192155    2.04153722145290
H           1.89778381573140    0.35340392464798    1.55739811512916
H           1.18929672469751    0.86849231813750    3.01783860379966
H           0.61233616214984    1.50953096951126    1.54115172349528
