    26
        -50.44637558  Gyration_radius:  2.66476302846 Dipole_moment: 6.714
 S          -1.40122650242261   -1.04580193083870   -0.59094551675342
O          -2.02154494093555   -0.53487317815182    0.58937786379923
O          -0.17841877660159   -1.90986854399932   -0.24143294167660
O          -0.97334920809705   -0.02961141078883   -1.53425478932606
O          -2.32386190811427   -2.04000525509618   -1.29301713765056
H          -1.79737436949504   -2.29034674934065   -2.14126281770780
H          -0.18035413841860    1.27059444604130   -0.89651877025989
O           0.37822214402084    1.95314358543275   -0.45872352643805
H           0.55966876193764    2.62160052184935   -1.12228610927315
O           0.96330739099900    0.35219081283780    2.98513718472230
H           0.67280622576149   -0.26284625342735    3.65896167100938
O           2.41585925799124    2.51754183915409    1.64859177195853
H           2.16814863027887    1.90594029645236    2.34960574250535
H           1.68000941408063    2.52791529209664    1.03028541946060
O           1.64732275385259   -0.38039889409384    0.52301888397548
H           1.51897254049470   -0.21260945354658    1.48795194599344
H           0.61719420337424   -1.31572036715085    0.08772681238831
H           1.50045073225943    0.48174866347130    0.10250769168781
O          -1.09800240529309    1.61798967703453    1.94096313670523
H          -1.60800575488155    0.87458091267206    1.57590493052482
H           0.16063494316460    0.86897833952829    2.70986636978806
H          -0.69107099787814    2.04471099534346    1.17521044570299
N          -0.70595020492689   -2.30701688630838   -3.25177817407665
H           0.07723144709963   -2.88382768480139   -2.97444158351184
H          -0.44910459413117   -1.33146053012130   -3.14041257072899
H          -0.93156462409454   -2.49254824423935   -4.22003596278071
