    26
        -50.44892240  Gyration_radius:  2.61015965438 Dipole_moment: 7.144
 S           0.84764273360059    0.56814816498740   -1.12557844252750
O           0.60843460862733   -0.85331712018879   -1.15468133410964
O           1.42673620092646    1.07126475739065    0.07988935695966
O          -0.49763415607108    1.29291337607955   -1.40525567668641
O           1.68312950729725    0.97976663459066   -2.33303537629288
H           1.30299181595824    0.41170595741284   -3.11221744689366
H          -1.12222516592008    1.18665546679334   -0.61514803890220
O          -2.02807600190893    0.85213637687799    0.59633166361372
H          -2.96018058022655    0.92080204070557    0.38068066462156
O           1.51657171610427    0.07818936170474    2.73072332960297
H           1.82096615169480    0.19293451481856    1.82195872216623
O          -0.08136647700807   -2.04467119667812    2.85686586329472
H           0.58888108563916   -1.31977107943073    2.83079598617217
H          -0.51138443896798   -1.97785128803487    3.71042344954664
O          -0.09060518756518    2.23270133685289    2.15112828822696
H           0.53186962702831    2.17780563930809    1.41398067569870
H          -0.91437464395295    1.86010785221753    1.81344092030588
H           0.94761628260269    0.85469024135988    2.88134078659929
O          -1.35962011697615   -1.60126385206849    0.56479522774223
H          -0.93984667604738   -1.86479127731295    1.41720218315220
H          -1.82117448939715   -0.14514516660377    0.66576032369842
H          -0.62536003974108   -1.53040730924772   -0.06904228400685
N           0.55633336894911   -0.63503773315411   -3.94919018188871
H           0.33964577274366   -1.22335077579214   -3.14904288472843
H           1.08502073819503   -1.16692434255176   -4.62752420116801
H          -0.30399164527047   -0.31729061024497   -4.37460157426139
