    26
        -50.45234088  Gyration_radius:  2.45889166402 Dipole_moment: 5.680
 S           1.80345172006938    0.33657655288162    1.18217133561463
O           2.03704201072772   -1.14826069806360    1.44057103929347
O           2.77945354101826    1.12323678799576    1.84027948212609
O           1.68410396827470    0.55699436353284   -0.25094276221714
O           0.40261337303043    0.61526246625062    1.79665742975613
O          -0.92493654253259   -1.00115800203629   -1.84044331776343
H          -1.39564912759901   -1.51233978112669   -2.49977601771387
O           0.40694398224725    2.70760662318589   -1.09758734699253
H           0.99551492237005    1.98767423317705   -0.78071705367451
H           0.70083900288966    3.50765837734554   -0.66028871024906
O           1.09031978319510    0.33876993923079   -2.86861202291147
H           0.82199578482584    1.26124290191123   -2.93229008123111
H           1.58759187263110    0.28024460616096   -2.03603305399933
H          -0.17043576748558   -0.55314108583896   -2.30670949861986
O          -1.37859858733158    0.97313520255729   -0.01164548333968
H          -0.31497655371892    0.72397483764935    1.08519338985670
H          -0.96640427639576    1.73425135257484   -0.46422277977493
H          -1.32908012681445    0.23769615990330   -0.65045950397517
O           0.00815262478559   -2.23979392257167    0.43052175662095
H          -0.71851864399964   -1.98947010589934    1.05802009116390
H          -0.23882771937363   -1.85078000484972   -0.42791607121209
H           1.25328412705741   -1.65475588968984    1.00500237780934
N          -1.88789306604543   -1.26863055525851    2.08370296560046
H          -2.56453182850513   -1.82086548665226    2.59467645691910
H          -2.38445810554365   -0.55787722472312    1.55930895200480
H          -1.29699638779285   -0.78725164765796    2.75153842691081
