    26
        -50.44892239  Gyration_radius:  2.61045124658 Dipole_moment: 7.143
 S          -0.29427554339858   -0.84559609128600   -1.22623744863572
O           0.39088145016245   -1.50246231269514   -0.14106265093795
O           0.32920459213214    0.34150388263592   -1.71998944481157
O          -1.74246909906952   -0.52610056710593   -0.76411855179397
O          -0.53743475798034   -1.83393435151719   -2.36179132436102
H          -0.79652061570130   -2.71551738649422   -1.88267333072421
H          -1.73256024505843    0.21007043340874   -0.06870890404013
O           2.18420267096323    2.15688109774954   -0.58750459289021
H           1.90422384307013    1.37358288440616   -1.07711696183687
O          -1.57999325169555    1.24999290827666    1.06944375738487
H          -2.33207089570953    1.24654096675104    1.66476425214213
O           2.47012023841046    1.52468232610036    1.98049234597419
H           2.46189123236390    1.73503625687541    1.01558307458442
H           2.53523656060750    2.36563859693566    2.43481109398626
O           0.32498073815721   -0.04197605208459    2.15088504014649
H          -0.81114453441526    0.80689041753139    1.57406003902460
H           0.47840673387705   -0.67847360741357    1.43171814392207
H           1.14533468313332    0.50346912333631    2.19176572211845
O          -0.43407567979268    2.93175760333158   -0.91509077869572
H          -0.32387249040932    2.16450835413946   -1.49215564701067
H          -0.90445707186528    2.59908627775985   -0.14084354456810
H           1.41017167771061    2.74651939654178   -0.63690986103751
N          -1.03340684120806   -3.81470112757995   -0.83841882301939
H          -0.66963949078014   -4.73837404728109   -1.03054179681065
H          -1.98257868183778   -3.89547219624001   -0.49988619873249
H          -0.46015521166036   -3.36355281616055   -0.13047360957439
