    26
        -50.44637550  Gyration_radius:  2.66503733233 Dipole_moment: 6.718
 S           0.24942321456036   -1.74308276269955   -0.55287657079070
O          -1.21263779713833   -1.49787249092326   -0.14554700668793
O           1.10148994839641   -1.77606899955342    0.59248705998290
O           0.60946546052857   -0.74457757022209   -1.54231861461921
O           0.18657960680425   -3.11884309815166   -1.21327752085456
H          -0.40250974594007   -2.95527240276212   -2.04126793107744
H           0.97385178939180    0.75788680852625   -0.96254879056507
O           1.06687502503908    1.64894279666497   -0.55394260496013
H           1.36909069158405    2.23604176550661   -1.24971648328427
O          -0.31346532166558    1.00970564956510    2.97483577223398
H          -0.50338432365819    0.38645089825611    3.67638974181580
O           0.09644599302905    3.53509401480317    1.54732690985547
H          -0.12155079905090    2.94441550648496    2.27561472772708
H           0.60308641816697    3.01128928872627    0.92057769093667
O           1.99841278368162    0.44794632730270    1.84258459293246
H           1.82974372328384   -0.45033843027293    1.50988479163911
H           1.97099327024379    1.01568996034975    1.06100027765393
H           0.60909055446949    0.81182504691512    2.66386961028071
O          -1.42214119200863    0.89232879245413    0.56126999019653
H          -1.35446694469292   -0.50807837765998    0.16215869200040
H          -1.17149400607134    0.95020199987879    1.51487078864950
H          -0.73432142473941    1.39449093424490    0.09588425322873
N          -1.24271475296436   -2.23791804848008   -3.13857671996388
H          -0.74288719865394   -1.35705683860132   -3.07231167308512
H          -2.19485335811105   -2.09687391052647   -2.82788026103640
H          -1.24812160452168   -2.55632686989975   -4.09849074216623
