    26
        -50.44892237  Gyration_radius:  2.61013472898 Dipole_moment: 7.145
 S          -0.68293401252511    1.07996306425615    0.82302028788385
O          -1.48383298221947    0.93104482204873   -0.35091624401999
O           0.73133269144584    1.24206857548761    0.59450060337542
O          -0.88688870505264   -0.14388881235358    1.75770481837986
O          -1.20487532666761    2.22451670049639    1.68523606592166
H          -0.45856650300578    2.37458029862092    2.38856546562962
H          -0.67312989019539   -1.00100823288463    1.26245446268271
O          -0.88325569984621    0.11045856285769   -2.99438449143003
H          -0.98735727338816    0.73845714187467   -2.26885669489463
O          -0.20074993151314   -2.22705923124602    0.44146004906586
H           0.06661581262809   -2.95708368799619    1.00328963634113
O           1.61727267714960   -0.79684286051678   -3.01796706937882
H           1.59683930347742   -1.55590323088249   -3.60219356757755
H           0.72086959965508   -0.38597133761110   -3.07234601650539
O          -2.30789513990547   -1.57138445475124   -1.34993898994843
H          -1.64988451602589   -2.04462815429192   -0.82602532905152
H          -2.37733679766492   -0.69932779754184   -0.93936311861595
H          -1.44107951933445   -0.64237593045589   -2.72729977351014
O           1.88222710011058   -1.02030876416006   -0.37872750022355
H           1.64713570257611   -0.12736247947973   -0.07331225067313
H           0.65776334210421   -1.82833703695551    0.05924633037823
H           1.89424436582039   -0.96116128613573   -1.36284874991165
N           0.86418808766905    2.35126839449512    3.16609980621100
H           1.26773951187676    3.23559581737242    3.44460891919964
H           1.39466677292799    1.96392257801197    2.39031780849240
H           0.89689134998701    1.71076732163846    3.94767554218137
