    26
        -50.44897603  Gyration_radius:  2.55708115577 Dipole_moment: 5.454
 S           0.35750973156156   -1.12457360223882   -1.19506776859272
O          -0.33095685208975   -1.26209562648659    0.06869034477054
O           1.76735212002044   -0.93594726573906   -1.10514648643829
O          -0.30028831263100    0.05486576101431   -1.96216820929307
O           0.01035898974239   -2.30623929759039   -2.09266597092972
H          -1.02046284799143   -2.37330401985161   -1.99748444802910
H          -0.09269188047153    0.94594968769002   -1.51541524876057
O           0.28032767567730    2.23724578828864   -0.77873719259990
H           0.43908390173374    2.94389954048917   -1.40773886937416
O          -0.06631861695472   -0.29807672246429    2.69983839152782
H           0.00824468620728   -0.92182703516466    1.96559153535461
O           2.28466615833997    0.98448712461460    2.65897982248047
H           1.45451905165662    0.46126737872447    2.73885693249340
H           2.22593559452549    1.68583916174228    3.30882426404736
O           2.54911000324546    1.42487954815016    0.03089834843820
H           2.52959835007258    0.53725374244832   -0.36292407954519
H           1.19721782128514    1.98592886515616   -0.40308400560688
H           2.55442510927791    1.28440547094355    1.00423932230368
O          -1.72144433132934    0.98313062170508    0.82945514565009
H          -0.76169502018373    0.31726337874530    2.41785877180096
H          -1.20891821090780    1.69018078579465    0.42161248908484
H          -1.33649784922995    0.16045422326887    0.48965604180219
N          -2.48312706220717   -2.18325736509553   -1.56741123270429
H          -3.12923799366289   -2.95881865520441   -1.63367214602819
H          -2.88611669577371   -1.37388992177446   -2.02149580773575
H          -2.32059352009461   -1.95902157711684   -0.59148995417652
