    26
        -50.46691572  Gyration_radius:  2.45783446099 Dipole_moment: 2.717
 S           1.52830522336353   -0.81308229619766    0.87067058678611
O           1.52918552993733   -2.22042341723171    1.15586536554896
O           0.57962197150732   -0.03296459228261    1.64223082405462
O           1.46069678372768   -0.48103702952755   -0.55024590970914
O           2.98160182865780   -0.27970738417222    1.31451008234829
H           3.30270526399334   -0.97711422736406    1.87764167703498
H           0.28523300849902   -0.90976666000942   -1.59831958214150
O          -2.77431058621988   -0.21591642604668    0.92078706799227
H          -3.58122497986019   -0.66340190915175    1.17810909277777
O          -0.48419894895626   -1.16993606806844   -2.15564350941755
H          -0.13094753494022   -1.39339034367081   -3.01781647945693
O           2.25901255784054    2.02747853769836   -0.48486572206173
H           2.92669475018734    2.02379302287008    0.20409434451245
H           2.06801431847165    1.07981959261384   -0.65146056510873
O          -2.02881612604178    0.95118069350097   -1.36196884566675
H          -2.50983822815024    0.53825887080504   -0.61307324861120
H          -0.99295478650503    1.66775465247864   -0.45047706295634
H          -1.55391201585719    0.21500394543882   -1.78924835615730
O          -1.07724012877523   -2.22747768108245    0.41099565877280
H          -0.98239741839794   -2.12606702013347   -0.54560348343360
H          -0.18154483829209   -2.32587073936958    0.77023414690342
H          -2.08507050850498   -0.91620130502378    0.88274317403417
N          -0.31475009414472    2.01350003176844    0.30807948838160
H          -0.07601935512824    1.17853443583063    0.92173237369761
H          -0.74390120476208    2.74774673417289    0.86015463906168
H           0.59605550828397    2.30928659232995   -0.09912578719195
