    26
        -50.46691580  Gyration_radius:  2.45752139144 Dipole_moment: 2.723
 S           1.36286005571839   -1.23219903548094    0.61473223488845
O           1.62083158417990   -0.36539615024516   -0.51926434528622
O           1.26652052057975   -2.62981547086008    0.29950498645960
O           0.27294610274420   -0.71901363889208    1.44095847944854
O           2.65585931815474   -1.08991013192012    1.56433869063128
H           3.12239508214517   -1.90625533451755    1.41417432066344
H          -1.31920613364893   -0.74225577893845    1.08238898634501
O          -0.87566357682458    0.28600611486776   -2.78051531790426
H          -1.22434218092741   -0.00121387974745   -3.62518962466240
O          -2.25445824845642   -0.75423735321283    0.77340519330331
H          -2.79214716647092   -0.93974582125511    1.54446727894087
O           1.35046411102937    1.52404793065664    2.30147833984869
H           0.89282174470623    0.66987474109193    2.14872574360600
H           2.27225233800335    1.28788297530032    2.42401506975770
O          -2.00296212754770    1.53786991356757   -0.70885255276232
H          -1.77344706056452    1.15024526737790   -1.58043978486690
H          -2.24529482695194    0.77474487025711   -0.15297251865864
H          -0.53150076496551    1.88893533940900   -0.34966543953531
O          -0.79329033563136   -1.97039647668168   -1.33497166132401
H          -0.68103845944259   -0.53848285335483   -2.28135211776424
H          -0.02709480546407   -2.30763087734293   -0.84487987019264
H          -1.47626730194018   -1.77292704535974   -0.68008046540175
N           0.53194768938162    1.97879273349905   -0.22348085396300
H           0.89888508046228    2.71488518138785   -0.81642331754959
H           0.96051726052585    1.04175047684477   -0.48602478457923
H           0.78841208110721    2.11444430415443    0.77592332049975
