    26
        -50.46691565  Gyration_radius:  2.45788158102 Dipole_moment: 2.726
 S          -0.31018357554722   -1.60562683812369    1.03924805107490
O          -1.40614298566684   -0.97351947085734    0.32985743807653
O          -0.39296307748033   -1.53258482827431    2.47092179654282
O           0.98212228236317   -1.21117789306155    0.48419250734096
O          -0.41388350385211   -3.17161547024009    0.67791677970784
H          -0.77614169114135   -3.55096502992146    1.47254939158967
H           1.72343414014588    0.23204296800124    0.66246989638198
O           2.08314812472052    1.14154631915826    0.77951901536486
H           3.03078220100579    1.04661223394514    0.88462626481676
O          -1.59534005360678    2.45393420931227    0.17766982251790
H          -1.99408612937607    3.21176844007577    0.60693629285969
O           0.79955277654863   -2.25969503642073   -1.92444130809184
H           0.32347632120892   -3.07796144583815   -1.76864287094036
H           1.03365939651490   -1.93354051456989   -1.02943103139739
O          -0.38108042961402    1.16355756044767    2.18952922465029
H          -1.27952040355625    1.87411656985222    0.90629217479600
H          -0.46953507475612    0.22119397849822    2.40189880611843
H           0.54295992254398    1.30697188662230    1.94481001424080
O           0.62293075122028    2.19788656639280   -1.28592279204151
H          -0.16493819446685    2.51133459287250   -0.79211892430671
H           1.25791760167561    1.92895418279518   -0.59704296262422
H          -0.06297798596046    0.89329605199339   -1.78008552736816
N          -0.64959530235330    0.01023228598121   -1.95646910264162
H          -0.05504466723656   -0.79129498849649   -2.25130158257605
H          -1.39014012396938    0.20277741218108   -2.62173084234856
H          -1.05841033922503   -0.28824375233469   -1.02125054178880
