    26
        -50.46691576  Gyration_radius:  2.45774707526 Dipole_moment: 2.723
 S          -1.57512479902083    1.12750901672167    0.04315057391090
O          -1.46649145366837    2.52887146655163   -0.25076773416459
O          -0.94254749499444    0.71069381087224    1.28007243892632
O          -1.21486218200265    0.24480729300917   -1.06361771980996
O          -3.14753287912942    0.84872964510023    0.25194946553719
H          -3.50276899798273    1.72094108653590    0.39204991121817
H           0.22054041065661    0.18476608810345   -1.83835873220080
O           1.12682125463278    0.17952543057108   -2.22425370255926
H           1.01943322395460    0.03880067693276   -3.16591875213975
O           2.48022754721482    0.51887844522369    1.47267327739824
H           3.25245785089562    1.01697368451238    1.74308652273381
O          -2.31677282061755   -2.00405580053890   -0.24986901575467
H          -1.97319249806032   -1.20993732238555   -0.71207433094157
H          -3.12330443233372   -1.70753563289683    0.17681230163079
O           2.15697890585655   -1.46342435899456   -0.28674984549620
H           1.89442542665644   -0.95633068839939   -1.07668157470479
H           2.49452343454329   -0.79043214537068    0.34237664172585
H           0.85193509101121   -1.72630107062218    0.51626810203457
O           1.22162303241011    2.18076196299833   -0.21287396362164
H           1.34454805520124    1.70006869368594   -1.04243685647424
H           0.28606889246084    2.43426285483756   -0.17439211335868
H           1.91400209574018    1.15596486453607    0.98237895622955
N          -0.02556407456735   -1.71967669128360    1.13669965097138
H          -0.29494302773395   -0.70257315053023    1.29037077241092
H           0.16286445389287   -2.17422083349198    2.02322779399174
H          -0.84334502478743   -2.13706731569001    0.64687794267759
