    26
        -50.44637558  Gyration_radius:  2.6647096159 Dipole_moment: 6.713
 S          -1.51682667383138   -0.24462942165471   -1.02287732065339
O          -0.98244273915411    1.19008465379592   -1.16443240767299
O          -2.11054727201410   -0.44550056710379    0.26014803737108
O          -0.43171190962499   -1.15651515514631   -1.33354128287281
O          -2.57633615357060   -0.31698856462850   -2.12046213971254
H          -2.02680482972322   -0.21343632632678   -2.98466386770707
H           0.67885176713015   -1.40429791671611   -0.13720079407314
O           1.35510560555527   -1.41372696737019    0.57844399950965
H           1.99584129558924   -2.08552750134752    0.33732733136164
O           0.19298109352064    1.53566365237256    2.75114838628022
H          -0.51797042300137    2.11429451476659    3.02762586948705
O           2.78507906476089    0.17073105299562    2.66532449774003
H           2.33121626832759   -0.49670229108219    2.14339838599092
H           2.10551598970180    0.78153748509754    2.96849617851028
O           1.07326520586590    1.38460230235509    0.24726583115898
H           1.46378730808775    0.49895822354745    0.31690966852971
H          -0.11949928659359    1.32571029515114   -0.58890421370954
H           0.79027344841941    1.60578455947286    1.16738624886625
O          -0.67737536124517   -0.93854608087381    2.50021803302514
H          -1.36010820316358   -0.82753868598527    1.81643887876947
H           0.06686958317049   -1.35745459413163    2.04782573926790
H          -0.16899409796069    0.61087115867274    2.77921298090999
N          -0.82225734399643   -0.08823866204073   -3.96327637385425
H          -0.17777730554172   -0.61306554496349   -3.38084435275772
H          -0.50496736632691    0.87059526442343   -4.01835872682642
H          -0.84516764435224   -0.48666488330399   -4.89260859691486
