    26
        -50.45450911  Gyration_radius:  2.45157707952 Dipole_moment: 5.292
 S           0.51131621168351   -1.65809020486556   -1.16147258447211
O          -0.40165176393547   -1.29415708851626   -0.09305994384934
O           1.15910919838459   -0.38500640164073   -1.73186747907872
O          -0.06018599963943   -2.38356538206738   -2.23753476552653
O           1.68619210623375   -2.43298197621669   -0.52622759911373
H           1.63419843707423   -2.33154811871877    0.47294284628968
H          -1.53863850486491   -0.51694573172753   -1.57596923493485
O          -1.17355230241565    2.27380158246449   -0.52805106058752
H          -1.37647781058366    3.10791704071088   -0.95335920884853
O           1.10344053864050    0.60047142490398    2.46847835162536
H           1.23397650234374    1.03211001792051    3.31353587243075
O           1.24997011751393   -2.07219034281540    1.98622427123607
H           1.37869693674837   -1.12684620601280    2.20296065214815
H           0.29938808845134   -2.17905312536404    1.87529123710455
O           1.39858585691355    1.51752485179769   -0.08929593545298
H           1.44809424963392    1.20206774512363    0.83158554507785
H           1.32042344554869    0.36249614309613   -1.04411711971310
H           0.50620595569421    1.90686601973712   -0.20146898590272
O          -1.36346714744275    0.54388651584191    1.63369877294058
H          -1.18814388121914   -0.20233331607351    1.03397784105384
H           0.12165592896778    0.61234529057535    2.27879771505110
H          -1.48664765916258    1.30211556980486    1.04307429769949
N          -1.65876542290013    0.26419746961578   -2.21322394636006
H          -1.39817601423379    1.55309828265121   -1.18525431650870
H          -2.51628015710119    0.10844496136915   -2.73008480389020
H          -0.88926690034036    0.19537499840179   -2.86958041842300
