    26
        -50.47250238  Gyration_radius:  2.48713230487 Dipole_moment: 2.867
 S          -1.67079653613242    1.22815090698388    0.91818758011045
O          -0.22879620756620    1.34756403664849    1.01835908531733
O          -2.14371001810176   -0.06865595109287    1.38690682330348
O          -2.18835416454612    1.55377849335240   -0.39724389023984
O          -2.27169981701920    2.31045393317723    1.90673959531440
H          -3.19015119901890    2.29381184542058    1.66070771708495
H          -1.51458381429731    0.68328534150249   -1.54963578403320
O           2.62500446122986   -0.41066006331539   -0.72998227662650
H           3.50180693365301   -0.30211209826165   -1.09863508959087
O          -1.03951537771742    0.17829367302716   -2.26059190921204
H          -1.64378977347949    0.13668511896485   -3.00318319497012
O           1.74735768438573   -0.27763155651806    1.87947537165192
H           1.14937191506603    0.48190293890085    1.75177494127784
H           2.25052153007095   -0.34061341373777    1.04704017639409
O           1.11405121857534    1.64067757402356   -1.27224298116011
H           2.11570912914439    0.41962450613981   -0.96179373316014
H           0.45310853630663    1.28264313223802   -1.88285216917284
H           0.64235199284251    1.71354842258364   -0.41819435308168
O           0.40234464524939   -1.93517917140986   -1.29872723089687
H          -0.06471624891886   -2.02299254745810    0.22503584471268
H          -0.15129004740905   -1.24723351234584   -1.71426280970400
H           1.28434531995946   -1.53248270743585   -1.20403730461262
N          -0.25559367667717   -1.86127808957894    1.25748224602870
H          -0.44551255441336   -2.72832079676228    1.74636033746463
H          -1.07192432680912   -1.18860384873779    1.34308564058921
H           0.59446037561084   -1.35465614631449    1.65022735721115
