    26
        -50.45450940  Gyration_radius:  2.45175763451 Dipole_moment: 5.291
 S           0.65519511339753    1.20088941719748    1.57762010761783
O           0.69089436608938    1.16246042237836    0.12689846973742
O          -0.32123886723290    0.12888369703511    2.09020019408297
O           0.28711479407441    2.44468688928059    2.15072262664890
O           2.03618226752676    0.73717707283648    2.08978350094872
H           2.54606370475694    0.33925010167749    1.31991238859334
H          -1.18696258751859    1.90924179122105    0.24418296489687
O          -2.36035447020464   -0.57614360374175   -0.96449942990289
H          -3.27720590262414   -0.85081325757485   -1.00596668131261
O           1.49579445407870   -2.00521618448884   -1.18587778592756
H           1.75645421415291   -2.68268960042787   -1.81082569582043
O           3.12783898511178   -0.13553378664075   -0.07390933964369
H           2.77132373767592    0.59270628471810   -0.59330509507016
H           2.64675041154821   -0.93010565700871   -0.38133244805868
O           0.07524325587580   -0.06887434739943   -2.19438926879212
H          -0.85720409882828   -0.28545323236546   -2.04402813013128
H           0.30291984655949    0.53427904592650   -1.46523244757178
H           0.99239677494988   -1.30864582744393   -1.69729035796004
O          -0.57075010183047   -1.89255936196432    0.59867152092997
H           0.22317816284180   -2.04442734980352    0.05405859725275
H          -0.36797509344077   -0.72409902743769    1.51690658872763
H          -1.25632906544293   -1.53526078556026   -0.00369924391577
N          -2.16177682576657    1.69105535057347    0.42529746176775
H          -2.69796015292272    2.53735570079739    0.27345739638422
H          -2.20844581734257    1.47271783138986    1.41417351358266
H          -2.34114709548566    0.28911839682426   -0.46152941705825
