    26
        -50.44688725  Gyration_radius:  2.60297775519 Dipole_moment: 6.367
 S           1.58109533215235    0.24689021431118   -0.26875733435717
O           1.12308821478101   -0.88799944677223   -1.01159105148493
O           1.34440715709809    0.04433097638754    1.22839819760011
O           0.98063668339632    1.50752004501842   -0.66074514003378
O           3.10548996774002    0.35832133525988   -0.36734553105585
H           3.30933768009532    1.21941922140386    0.14794501514391
H          -0.67236834688622    1.37137612008395   -0.56648276234160
O          -0.87544436239812   -2.77442060168432    0.02597916814618
H           0.07620081009474   -2.83056310766863   -0.09483796490969
O          -1.61745469056889    1.13679553036722   -0.43703670326578
H          -2.13039224214876    1.94221173826655   -0.51803867896436
O          -3.58830114709277   -1.45306362022854    0.06217175225984
H          -3.35750669259008   -1.47431246451702   -0.87062660816975
H          -3.19257207792404   -2.23544685288361    0.45414491734589
O          -1.42723447681907   -1.11269977543567   -2.02488516013001
H          -1.19282112811350   -2.31473233184646   -0.78406484856128
H          -1.70250936140277   -0.30020977192261   -1.56729505310392
H          -0.46160033115130   -1.05034618305745   -2.05766763113447
O          -1.01019567274824   -0.63680397490927    1.56873890009947
H          -1.03929515662344   -1.52141487436387    1.11617353546239
H           0.32589379576981   -0.24817355096842    1.43681936666641
H          -1.53363721324136   -0.04284412073165    0.99910607447319
N           3.09864670421190    2.56105968341197    0.93615356947398
H           3.71565732445269    3.35795648694816    0.85197132923245
H           2.92940893485368    2.37173709276493    1.91511683658290
H           2.21147029507275    2.76541221278498    0.48665580502280
