    26
        -50.45450923  Gyration_radius:  2.45165538204 Dipole_moment: 5.288
 S          -1.03614262710929   -0.75967172956307   -1.64583835853156
O          -1.02674471161777    0.41086875938602   -0.78731786917020
O           0.22118046979763   -1.60157975781131   -1.37033512840092
O          -1.09810454641610   -0.50001562011134   -3.03850176099577
O          -2.20590238558332   -1.66014007024211   -1.19268761885147
H          -2.54828205918314   -1.32107634104311   -0.31007919938647
H           0.51225709919293    1.02551695436254   -1.94856886445078
O           2.44169486389950    0.86594551772239    0.34659601925208
H           3.39905831985968    0.89772776719010    0.33213220088795
O          -0.75628329792282   -0.34839142281665    2.64057158760053
H          -0.77386086472745   -0.24151886453361    3.59226569095939
O          -2.92081682389109   -0.51976463719225    1.00327899350980
H          -2.20649380101087   -0.61745562400194    1.66473042155539
H          -2.80107144813800    0.35980309990992    0.63007569553441
O          -0.00090169275764    1.76144591595730    1.31262224343523
H          -0.48844254483821    0.53189272107304    2.24884786124693
H           0.94853757006159    1.67095251286736    1.14132470501593
H          -0.42423329532905    1.44914713232558    0.49380904721055
O           1.12783821174095   -1.42630502959414    0.97962353934346
H           0.43499406514412   -1.18748638888343    1.62218764139851
H           0.54692141068420   -1.58419033163946   -0.39499592771063
H           1.67775451013471   -0.62488593597680    0.85410876700662
N           1.50171796019602    0.91823008173535   -2.14880639379301
H           1.74315334743631    1.59074521734913   -2.86732160410709
H           1.59488111519260   -0.00714495522768   -2.55219286751198
H           2.13729117536674    0.91735102863079   -0.60552880105677
