    26
        -50.44688731  Gyration_radius:  2.60317581519 Dipole_moment: 6.380
 S           0.56202780822989    1.09110631023386    1.06315193616159
O          -0.67261685794308    1.65474351948537    0.35864588724827
O           1.57895546381766    0.75766653828363    0.11228353683388
O           0.14339496377987   -0.00902527449979    1.91026668084797
O           1.02515372914551    2.25898491941419    1.93901682102090
H           0.25269288095924    2.37324425628973    2.60144483319485
H          -0.34087402185663   -1.27786635261130    0.95347954866675
O           1.00085326184818    0.23136954578339   -2.72091188975044
H           1.39758352085464    0.97687308835145   -2.26250627169427
O          -0.61037523414644   -1.91544548976069    0.25649645923335
H          -1.05738354864838   -2.64523127187046    0.68767330764618
O          -0.39849539499925   -2.42824335974491   -2.99288277188976
H           0.46248184075269   -2.65860321119163   -2.63318048144876
H          -0.25951733457219   -1.65671742667084   -3.54765436096648
O           1.81271793660658   -1.72565513570910   -1.05303276594165
H           2.08355089044936   -0.96850796950455   -0.51369618966787
H           0.97760544637356   -2.01816388362789   -0.65039726462469
H           1.38400478963748   -0.55645642110209   -2.27279427474399
O          -1.31579659405550    0.10570575034464   -1.46111094454012
H          -0.53838919694998    0.17294737463311   -2.07676243317066
H          -1.25501070199905   -0.78650385473838   -1.07169310864314
H          -1.00352337858813    1.01227046739750   -0.44359650496561
N          -1.08885519818638    2.11021070656944    3.37415983008507
H          -1.05553246014833    1.10582001260151    3.22951084926437
H          -1.87206388700204    2.48593663839133    2.85616147796684
H          -1.21258873335478    2.30954052323604    4.35792809386197
