    26
        -50.45300975  Gyration_radius:  2.43481026437 Dipole_moment: 5.195
 S          -1.67872034819595    0.65071959606038    1.07080112302179
O          -2.79224593195133    0.80683535890306    1.92873400424978
O          -0.57051957945675    1.56663951828597    1.29588705340210
O          -1.12073894261453   -0.78657239842374    1.17833870413637
O          -2.11057682503081    0.78866366570701   -0.39806729143608
O           1.50988176004701    0.66038956565138   -1.63908710901565
H           2.32239170604792    0.93683003954724   -2.06447194114888
O           1.76992757472675    1.07652917492041    2.49500497682139
H           1.62703669338481    0.98435549833355    3.43805447200853
H           0.94117183579824    1.43933360036109    2.12588177574389
O           1.36261321145131   -0.80444795031454    0.64727992205148
H           1.49697776598814   -0.30618341745814   -0.18391498080221
H           1.70249374927513   -0.21840766855753    1.35805292097389
H          -0.12041891724467   -0.80249241110498    0.95211799934830
O          -0.02514027611427    2.69419322941906   -1.02777713347603
H          -0.87536565928408    2.62839030438768   -1.47053735545361
H          -0.19807185180519    2.43150489117059   -0.09922219713899
H           0.99880845782812    1.49075051488245   -1.43781387491639
O          -0.83879221149714   -0.72699620926786   -1.93421441921494
H           0.04222673217482   -0.32651144125746   -2.01952919130518
H          -0.69980651642837   -1.61124392909535   -1.49461916401017
H          -1.60638669544720    0.13993410053428   -1.03970601371976
N          -0.33932265159726   -2.99607518424213   -0.61061017791742
H          -0.34222608043493   -3.92397124417866   -1.01378479680208
H          -1.02351872286854   -2.96524505338422    0.13566722080282
H           0.56832172324881   -2.82692215087925   -0.19246452620114
