    26
        -50.47250306  Gyration_radius:  2.48736846233 Dipole_moment: 2.879
 S          -1.91952437895511   -0.77940725081965   -0.92265056766542
O          -1.06155310552630   -1.32716193029238    0.11055883841443
O          -1.20642890002313   -0.58945005776669   -2.17984434198257
O          -2.62656876707139    0.41844872679691   -0.51169424509528
O          -3.03091883698165   -1.87417285495065   -1.19835565714553
H          -3.62693680851405   -1.39164449714172   -1.76080031982346
H          -1.65180019006790    1.56040371299654    0.02145658094664
O          -1.03594019307609    2.23656153530822    0.40859458787377
H          -1.47454569048142    3.08229687763652    0.30519698319817
O           1.94529615698677    0.03670227691169    1.95067599157662
H           2.39874650368006    0.06935212871152    2.79316462300879
O           1.53318474287931   -2.06480041727320    0.21580334529163
H           1.82530813584199   -1.45120321303636    0.91461308403618
H           0.55958488850646   -2.05782234817157    0.26986392555084
O           1.58578785267899    1.74202125939115   -0.18269917110797
H           1.49856616721045    0.56240942583772   -1.25439810967563
H           0.66722149864257    2.01853586397424   -0.00290285206126
H           1.86757514258050    1.25537367721026    0.61279421464710
O          -0.63573710469418    0.19842984850839    2.26206635739074
H          -0.91284575490306   -0.44578230875668    1.57988690673540
H           0.96600507502624    0.08330368887079    2.15409797528370
H          -0.85731310715658    1.06155592195282    1.88273217222859
N           1.35759973827809   -0.35464079612963   -1.77177186187356
H           1.56951420885173   -1.13340611260007   -1.07730342202429
H           1.93656467271572   -0.41230302145727   -2.60142225955780
H           0.32915804308455   -0.44360015648490   -2.01766276807383
