    26
        -50.47250312  Gyration_radius:  2.48723046103 Dipole_moment: 2.883
 S           1.91200176440890    0.17784676550189   -1.20695065616003
O           1.00228606004727    0.16456607111819   -2.34603089431624
O           1.51233082949726   -0.76762233998198   -0.18229913420921
O           2.13170593739402    1.51944746294330   -0.70144348636348
O           3.31398373073811   -0.32478809892509   -1.74681228002544
H           3.57493441605224    0.41046040879022   -2.29076474865279
H           0.86620540275465    2.09923887931379    0.07427244686245
O           0.09288141238369    2.41955039870060    0.60866515795943
H           0.13109907412073    3.37665553188036    0.58024960588544
O          -1.48113555203569   -0.94944050729076    2.12006794249377
H          -1.77797576279349   -1.18273426836088    2.99980560571558
O          -0.51893163565079   -2.52675459965293    0.07530620429067
H          -0.92614984881100   -2.15488236506154    0.87905684232565
H           0.36543141053369   -2.11815701320906    0.03275923899108
O           0.82976215550082    0.25019790552249    2.19151573681080
H          -0.58568967290228   -0.51496926103038    2.22918144033687
H           1.23930551653883   -0.15794408461750    1.40230768467955
H           0.62551988301528    1.15591857607322    1.91611878895293
O          -2.16410989733862    0.92721077510355    0.22332561683054
H          -1.76825117142856   -0.00966184740319   -1.00647300466336
H          -2.10279431378150    0.30040301476744    0.96664741433431
H          -1.41928673449004    1.54574016065439    0.34632452834120
N          -1.34641760523719   -0.73423845482482   -1.65899380208000
H          -0.41854376693025   -0.36199677603788   -2.01468676635697
H          -1.96809147781986   -0.95669789201411   -2.42766777122961
H          -1.12007014368380   -1.58734844194156   -1.06348169075507
