    26
        -50.47250305  Gyration_radius:  2.48707990248 Dipole_moment: 2.886
 S           0.89967819990253    1.38582121255320   -1.55315084559868
O           0.11871680948065    0.17143424892341   -1.69134165289515
O           2.12932173210241    1.16104169375241   -0.80300390905184
O           0.14020300490556    2.50534646848926   -1.03012632135259
O           1.33754533830114    1.79676673716907   -3.01912987940466
H           1.70613282088579    2.65964995211277   -2.86420015490510
H          -0.55500222090945    2.17304642530854    0.36465357640456
O          -1.71109987649589   -2.00693413213045    0.79709693829822
H          -2.49015003643814   -2.54421306829348    0.94171946887751
O          -1.03211995020277    1.92882070478768    1.20070005082951
H          -1.17518083155896    2.75079606189552    1.67219179328480
O           0.44004830044679   -2.38428975920603   -0.88426603070051
H           0.29555116637798   -1.58425901346442   -1.42274292585201
H          -0.35760733860469   -2.45736584267392   -0.32880726492488
O          -2.29074321151129    0.15369962716393   -0.53743663021886
H          -2.15603453122367    0.86373812117525    0.10715240591689
H          -1.50082617771906    0.19444036906328   -1.11324104402196
H          -2.00962089296614   -1.21272787553137    0.26550075280740
O          -0.10388848904724   -0.37935865445073    2.33173140076849
H           1.21115878535202   -0.69026284106599    1.48264315903869
H          -0.42842511731725    0.48811846629064    2.02397612543548
H          -0.72640253447870   -1.03181187016131    1.96314477396340
N           1.92175133628922   -0.93590447740626    0.73206912276752
H           2.79129311369264   -1.27007558512304    1.13088777985286
H           2.08311862851525   -0.07517137754650    0.13281018874660
H           1.46258196099744   -1.66034557822038    0.10116915971130
