    26
        -50.47250305  Gyration_radius:  2.48733970165 Dipole_moment: 2.878
 S           1.02745475167033    1.85576389891180   -0.80231381459829
O           0.99322814085564    1.13483688908851   -2.06885506842782
O           1.35501864719426    0.98391902050735    0.30958416552391
O          -0.17511049549545    2.63797417335543   -0.58861827035288
O           2.21667350568294    2.89679012204195   -0.91059001113863
H           1.86438339887553    3.51129401533403   -1.54515742318638
H          -1.44261522021874    1.74008286703521   -0.23419357794262
O          -2.20652941632456    1.17089636327979    0.04656342438520
H          -2.99799775017819    1.65640337487960   -0.19047641197408
O          -0.45696907774230   -1.90818489713808    1.93411033067461
H          -0.64762574625579   -2.34524818512471    2.76424630368155
O           1.90987484275201   -1.64733327279171    0.54640603261398
H           1.17859404879251   -1.89197936739809    1.14266000039535
H           1.95290111271436   -0.67424360755037    0.59209125466868
O          -0.50962501194344    0.68257740687200    2.19879728808439
H          -0.47567439571985   -0.92470414322968    2.12104068911091
H           0.24846766238261    0.91060536304893    1.62394915962655
H          -1.28820169073549    0.94786218352212    1.68752252396458
O          -1.78428120516251   -1.48433641798264   -0.44225171188285
H          -1.44517809907955   -1.78115003038835    0.42145398258922
H          -2.02980767298935   -0.54846006232965   -0.31416369637422
H          -0.44918834539022   -1.48324805281804   -1.31696294255977
N           0.54406011798363   -1.40430437150649   -1.68543604203028
H           0.69533312938490   -1.99886146689022   -2.49193596183893
H           1.19087477630965   -1.65007431663476   -0.87616581620615
H           0.73194001285312   -0.38687750600488   -1.92130440674258
