    26
        -50.47250304  Gyration_radius:  2.48732219197 Dipole_moment: 2.877
 S          -0.93284129096037    2.04030371694615    0.33191367275349
O          -1.38782700657568    0.70990016006862    0.68783491661193
O          -0.74313997348824    2.18521524388702   -1.10616379358899
O           0.23158299914347    2.47264938876031    1.08086676895108
O          -2.10521336148627    3.02803221146265    0.73161960808241
H          -1.68164576773347    3.87140953898937    0.61462909129216
H           1.45218672800389    1.45458559326401    0.96881619170289
O           2.17963766552382    0.77911294055026    0.93968111114122
H           2.99142496838875    1.25830739272209    1.11202294416331
O           0.23063297280366   -2.70035908788131    0.49358388269634
H           0.32166913153431   -3.54877304444522    0.92766264359310
O          -1.95386458706969   -1.52886472637376   -0.71026635202072
H          -1.29805832501865   -2.12109872274843   -0.29878292708364
H          -2.00678013475118   -0.76163145299405   -0.11078220007238
O           1.83163198583785   -1.06867142031603   -1.04350016383142
H           2.05579901561604   -0.39821641991741   -0.37064683394880
H           1.39275015902732   -1.78724528795007   -0.55348135181098
H           0.61086483987585   -0.47310416971434   -1.88176115176840
O           0.23961949106617   -0.75155565063098    2.22177982028318
H          -0.44548122930537   -0.18344372525514    1.81551096378954
H           0.22237533014347   -2.01051722090576    1.21929804265867
H           1.07244405165563   -0.29128219125311    2.04143384819656
N          -0.33147938074308   -0.12979947257665   -2.23200180106682
H          -0.38234133938455   -0.13561481871733   -3.24404697070816
H          -0.49442101403613    0.84590810301343   -1.84796795024331
H          -1.06952592814189   -0.75524688815618   -1.78725200974537
