    26
        -50.47250300  Gyration_radius:  2.48706876998 Dipole_moment: 2.887
 S           1.26871194383816   -1.24952506639856    1.40433076522578
O           0.58153557608423    0.01204242142386    1.60384074196729
O           2.24483920827050   -1.17384498023210    0.32420073195154
O           0.37147543955428   -2.37847652498494    1.24894793342051
O           2.08929719554379   -1.51847506866449    2.73249327202926
H           2.38125113011727   -2.41217871621258    2.58922017233064
H          -0.67605625624728   -2.16812635422040    0.06653941574290
O          -1.36152807427073   -1.99365517402572   -0.63046108746691
H          -1.64703076149607   -2.85414342286877   -0.94090749722123
O          -1.82610571357810    1.99209983595068   -0.53551015574059
H          -2.60439776579468    2.54945573558265   -0.52550361140113
O           0.71413677179501    2.44132086183179    0.43448526561720
H          -0.20491710380786    2.49374410341642    0.11404621074865
H           0.70975194312222    1.71467529402397    1.08473963393232
O          -0.74039270383722    0.12367342229111   -2.24307396331171
H          -1.22324091446582    0.84433176047489   -1.79960324174040
H           0.76438220367584    0.45776196539021   -1.83026992593561
H          -0.98314053949821   -0.68639642468537   -1.75587161786376
O          -2.05247009702759    0.02627826655897    1.15828292982368
H          -1.97998643251361    1.27847987009072    0.14975563265534
H          -2.11582160485308   -0.75697219625899    0.59232953487993
H          -1.13482085906280    0.00871783008412    1.49698876752225
N           1.66021669203146    0.74760769978868   -1.33803769409005
H           2.39116917841183    0.98974641209928   -1.99673069022191
H           1.96475409679045   -0.04857930607693   -0.70614330900475
H           1.40838747708328    1.56043776622188   -0.69808822371251
