    26
        -50.47250299  Gyration_radius:  2.48733801031 Dipole_moment: 2.879
 S          -1.26945772988669   -1.87655990262270    0.10019051096720
O          -1.43525812536649   -1.65049781528899   -1.33033108214045
O          -1.32662586730714   -0.63943748027605    0.85516260130998
O          -0.09642724085907   -2.67806305383526    0.39226994136234
O          -2.51662909744646   -2.73504557702709    0.56626427245283
H          -2.32749042580366   -3.57064176818287    0.15348329814865
H           1.26633426238190   -1.87731010514319    0.19252697655588
O           0.92909466304201    2.38925274043685    1.00909627517688
H           1.29981700091481    3.06050446115533    1.58223268158493
O           2.10213828461527   -1.34529989292743    0.12320604669808
H           2.80346648398289   -1.97676508020290   -0.04324268989860
O          -1.66995063212485    1.95717859428743    0.20132470860503
H          -0.82521252064196    2.30149837243948    0.54478767821758
H          -1.76072182554620    1.07382338756705    0.60419081782670
O           1.75141579273272    1.00496758274698   -1.22601654095227
H           1.96121540126397    0.14925031532605   -0.80615113195862
H           0.27638677630920    0.86549270317581   -1.81949099906239
H           1.60140770274791    1.62301261273939   -0.48805510048256
O           0.87861544100098    0.06669279757885    2.18742103864332
H           1.52830526531803   -0.45401006557620    1.69276599932000
H           0.92517897259321    1.53789120301228    1.53600542748497
H           0.01272113321552   -0.25133441998622    1.86142829361184
N          -0.77182074617923    0.78720241507297   -1.97349900645996
H          -1.06118227030155   -0.21713119696737   -1.79020890192084
H          -1.03851779873623    1.07846930718262   -2.90671883840742
H          -1.23680289978973    1.37685985604273   -1.21864227715209
