    26
        -50.44833789  Gyration_radius:  2.53192909779 Dipole_moment: 7.403
 S           0.76927537089980   -1.12351468829823   -0.61298314003518
O          -0.72920250552086   -1.01311077199039   -0.26645492030662
O           1.57514148154698   -0.92884609622309    0.54704508495073
O           1.03743832166406   -0.19730335744177   -1.69660312574842
O           0.88489944013072   -2.55809814375726   -1.11928063769679
H           0.29774203976797   -2.55419921799621   -1.96512002904452
H           1.20769326168728    1.34373155611137   -1.10737018531571
O           1.12720946483014    2.23068843225601   -0.68798295672518
H           1.40947519947556    2.87055314049060   -1.34405464274639
O          -0.74856389381793    1.34149472458230    2.74947743634943
H          -0.88996557038853    1.85278273504557    3.54673544205366
O          -1.63384368148865   -1.38833438799422    2.51914740060707
H          -1.35582725667316   -0.48763206708908    2.73004924481274
H          -1.36179775765706   -1.54010895459851    1.61022476326948
O           1.75194606734868    1.39776130295645    1.93383445950670
H           1.86094185845005    0.47991345682249    1.63352523369275
H           1.70722972873839    1.91610669328384    1.11815241264776
H           0.22761143782257    1.35450146584176    2.56551566877070
O          -1.32481245557274    1.38166159213009    0.14978247571528
H          -0.53190655036659    1.86506331591714   -0.15159739560491
H          -1.03281032258147   -0.01573289764985   -0.10859991119941
H          -1.30574974536288    1.42492416156920    1.13153238626790
N          -0.60259608332992   -2.05746823809652   -3.13125950353079
H          -0.55995072522050   -2.47251858041320   -4.05248616917483
H          -0.21192337057198   -1.12110812098782   -3.15728056429387
H          -1.56765374378123   -2.00120704441544   -2.83394883710426
