    26
        -50.47250302  Gyration_radius:  2.48734749851 Dipole_moment: 2.877
 S          -2.05060165369564   -0.72635036068913   -0.64080413176294
O          -1.11268502715413   -1.24315639862867    0.33741443332563
O          -1.47390620367367   -0.68283349261664   -1.97894596846324
O          -2.64110385481822    0.54284865161389   -0.26105874234685
O          -3.24365888845750   -1.76690628085272   -0.69992620990090
H          -3.87308954833579   -1.29239037805243   -1.23195639895833
H          -1.55183362996855    1.65917019892858    0.06434963050256
O          -0.86039678257043    2.32340459692722    0.32329860932296
H          -1.26064320420088    3.18446883481385    0.19400464445277
O           2.15131563258044    0.06792944062644    1.71992164109843
H           2.69778802618957    0.13856919558138    2.50277191036925
O           1.43321593987193   -2.13454891182380    0.22710474429877
H           1.83509924472321   -1.48706635603715    0.83489531725039
H           0.47375210421379   -2.06106054312903    0.38449850727842
O           1.64729346475828    1.61708724691038   -0.50136300915351
H           1.98986966345553    1.17833645466294    0.29813337208826
H           1.37649854857001    0.36391008576851   -1.45194048428597
H           0.77114973172371    1.96482653436388   -0.24836462641136
O          -0.36573779520188    0.41793756779223    2.29184722086901
H          -0.58125584497364    1.26059485425287    1.86591848412688
H          -0.75220819720260   -0.25938595019668    1.70102481887547
H           1.20514625066448    0.19276223053647    2.02268106725428
N           1.12868425457083   -0.58060921012889   -1.87032142108564
H           1.60688826796247   -0.74084960283969   -2.74923905839517
H           0.07581375450025   -0.62322672002853   -1.99576942334108
H           1.37460574650466   -1.31346164773408   -1.13817490700225
