    26
        -50.47250303  Gyration_radius:  2.4873399286 Dipole_moment: 2.878
 S          -0.40610212237565    2.06748284756014   -0.83875968288890
O          -1.05412744343079    1.31798577368952    0.22047901172733
O          -0.46178528849660    1.36614740980477   -2.11552587735734
O           0.94167678598622    2.48879380654569   -0.50750542999539
O          -1.25080958261714    3.39549990528867   -1.01914033709155
H          -0.68941660865513    3.89009493579147   -1.60619713283455
H           1.87902969594817    1.27657633366175   -0.07107992574116
O           2.43062068949507    0.51892472632366    0.25763511044694
H           3.34210448030949    0.76732643834374    0.09686711047597
O          -0.25214000021679   -1.96220884856562    1.91759026442656
H          -0.26101910737191   -2.43593477155526    2.74944441580094
O          -2.32823722303930   -1.05876026732800    0.34640767434569
H          -2.10652673731375   -0.11151947029119    0.41221647476430
H          -1.74610558094287   -1.49587647473120    0.99463947946246
O           1.34016422285184   -1.91686615925940   -0.32977015391666
H           0.85964213134597   -2.10999022195249    0.49536821960215
H           0.13688961813278   -1.54810360145398   -1.31135466143560
H           1.82059400521899   -1.08469736976003   -0.15873174954426
O           0.48592084979807    0.51369943976541    2.24989068102151
H           1.34867413826248    0.55522336812019    1.81187607419898
H          -0.12793120711799    0.94186332178420    1.61976995961359
H           0.01927788475692   -1.02212159394721    2.12981583545451
N          -0.76115265525762   -1.19876662556476   -1.75863287853486
H          -1.51784724248345   -1.25786835667951   -1.01195803473954
H          -0.99949297559873   -1.72817842823846   -2.58915600887377
H          -0.64190073744386   -0.16872611752945   -1.98418844840006
