    26
        -50.47250306  Gyration_radius:  2.48715834537 Dipole_moment: 2.888
 S          -2.05287472727801   -0.66370349657313   -0.69902878959570
O          -1.38762036127344   -0.80478531009832    0.58202724411092
O          -1.30173683303264   -1.29673633683052   -1.77618885241652
O          -2.41093500570026    0.70544812010386   -1.01675352393303
O          -3.41757957951100   -1.45879100578133   -0.57635797895616
H          -3.85350606048607   -1.19841995949980   -1.38049796987069
H          -1.16196140848157    1.69400147940814   -0.97060173865590
O          -0.38580087350188    2.30602586335197   -0.87484380749330
H          -0.57254922493171    3.05902302118549   -1.43738510267725
O           1.86304043097994    0.55644858419694    1.95149056217663
H           2.29985487780305    0.90050101899734    2.73079884092202
O           0.90628279131718   -1.96864978797698    1.40059442539806
H          -0.02868587045191   -1.70933482791734    1.30321040892754
H           1.34908268965342   -1.17493631385601    1.75286006324693
O           2.00673656326054    0.99030442565899   -0.76462973747015
H           2.13617683589252    0.91850791949223    0.19829286955778
H           1.60875391436703   -0.50928841975555   -1.13754059200497
H           1.19696848723698    1.52362124101386   -0.87609079069684
O          -0.57754484294932    1.44788180834815    1.76789713935006
H           0.93223589059230    0.92522347967656    1.96255196933352
H          -0.55125534839761    2.02793883952547    0.99287222669060
H          -1.01514284665807    0.63334644194221    1.44819085990059
N           1.22464171239466   -1.49950398574644   -1.16530313395226
H           0.21346431434259   -1.45526718717166   -1.48386501177780
H           1.20836820170938   -1.84953465172282   -0.15986753439614
H           1.77158627455982   -2.09932095189978   -1.77183202764258
