    26
        -50.45253305  Gyration_radius:  2.55215921313 Dipole_moment: 6.112
 S           1.39740228923503    0.67626726192883    0.35844756122860
O           0.86892437326446   -0.63834909117554    0.94835705012332
O           1.06140560416112    1.79074136728936    1.18280520204756
O           0.90853533984798    0.79006055353264   -1.00662606851220
O           2.90629890465204    0.47094141833075    0.34893027066317
H           3.10016881916923   -0.40749805562654   -0.13317966704451
H          -0.65110275236462    1.32686496395887   -1.08474800871808
O          -1.62460574498547    1.46666323296339   -1.04005639065382
H          -1.87763891179792    1.90449784204502   -1.85442098975057
O          -2.57223664476277    0.01378826709284    2.55161078509809
H          -3.49635232700200    0.15133822483999    2.76356461782805
O           3.28726922792053   -1.66361295866680   -0.97700060814659
H           2.36034973405239   -1.90560583200125   -1.27805784127516
H           3.78116792651330   -1.42904453007697   -1.76589219942740
O          -1.55444642803604   -0.94570151609865    0.31584566518271
H          -0.12245702059848   -0.80241771783554    0.70887081368195
H          -1.99173837783347   -0.75802711192215    1.18312542909446
H          -1.75936069688720   -0.17598722621547   -0.24175582708189
O          -1.57453588081800    2.30083231363676    1.64286824705795
H          -0.60455943559105    2.26334045828509    1.68570346388327
H          -1.78086101438069    2.20723462257931    0.70139380421260
H          -2.19299279301333    0.90760426442772    2.36607435910271
N           0.79392622270183   -1.95276107432148   -1.80291031510158
H           0.18800439562679   -2.38265864965350   -1.11476713477501
H           0.49516606995198   -2.26239858501529   -2.71905727307350
H           0.65426913100958   -0.94611246232979   -1.73912495561285
