    26
        -50.47250302  Gyration_radius:  2.48739809992 Dipole_moment: 2.879
 S           0.14608017922030    1.22976695467297   -1.90032202426541
O          -0.13706923379666    1.61458970646143   -0.53093312051211
O          -0.82448282633917    0.26793086529621   -2.40840360758757
O           1.51141826454452    0.78514221854239   -2.10500253014122
O          -0.02499052824176    2.54219978835471   -2.77084662427466
H           0.31881300943628    2.25220901088989   -3.60882447651444
H           1.92857366343171   -0.40503836390245   -1.13119408646380
O           2.19126652096269   -1.10229658024277   -0.47463328559234
H           2.90962110587830   -1.58953370548620   -0.88071441783109
O          -0.06675006661307   -0.28133884143176    2.73959116527871
H           0.14006156179141   -0.22462650923123    3.67259667297723
O          -2.04188372454191    0.94745416789367    1.26199490622244
H          -1.46216225068426    0.57395157084783    1.95088185920579
H          -1.44238038176088    1.44407191452144    0.67478833667046
O           1.70004797036367    0.98321181181455    1.30310978843259
H           0.64025615543760    0.24126240350266    2.26044204195322
H           2.15484124418664    0.27406047495570    0.82538780170849
H           1.10205293210926    1.38019584463105    0.63831176674910
O           0.04676847303820   -2.22637048367013    0.79282941937719
H           0.84688876870142   -1.92427737278904    0.32272002749768
H           0.00979427763807   -1.69156269285971    1.60633758643296
H          -1.19779889157223   -1.64348745406315   -0.01876477034985
N          -1.95411811570815   -1.03901759675605   -0.45605346530794
H          -1.54159607922767   -0.54898336896088   -1.30206362934515
H          -2.18338256864529   -0.27668798433328    0.25106804757911
H          -2.76986946072307   -1.58282576477122   -0.71230339055860
