    26
        -50.45234080  Gyration_radius:  2.45878417116 Dipole_moment: 5.677
 S          -0.00718598595689    0.85355514168638    2.00785207246344
O           0.37302522204062    1.56116349041004    0.79481000981668
O          -1.08225909255512   -0.19240983833773    1.59865445233468
O           1.17205396635330    0.01158215256073    2.48400780954669
O          -0.50385893269618    1.66532992526491    3.05610413698353
O           1.18822155792321   -0.36391600008777   -1.92289318598565
H           1.67832972506614   -0.67702715855825   -2.68402078064164
O          -1.53086788355685    2.37669646761871   -0.84263561139555
H          -2.23195425578435    2.84611298538429   -0.38900378110260
H          -0.83929312557798    2.19507088778623   -0.16882420238623
O          -1.35949752120047   -0.33132014438884   -0.94522467130576
H          -1.60214273718987    0.60033265060375   -1.11046600221035
H          -0.47914646093011   -0.44244400350400   -1.35019607171489
H          -1.17323292613348   -0.27679492876763    0.58973383338687
O           1.40473132758146    2.23648323582253   -1.59932804156037
H           0.57934799770355    2.63447968777230   -1.89489893521216
H           1.30963713848476    2.15028259590876   -0.63624355282766
H           1.34626434779587    0.61514181864299   -1.86050814899607
O           1.61543601974928   -1.51787402075385    0.53660419574417
H           1.43060426277887   -0.60895399693183    1.70382311896394
H           0.84206230738176   -2.13915520026054    0.55713970357479
H           1.56196815697647   -1.05838715275940   -0.32087796664185
N          -0.66402153115382   -2.95786640775561    0.57480226735177
H          -0.72419393329030   -3.96736275457540    0.60881990414424
H          -1.22119343320257   -2.62956906276134   -0.20526871922564
H          -1.08283420059357   -2.58315040000748    1.41803820689961
