    26
        -50.45253300  Gyration_radius:  2.55308821687 Dipole_moment: 6.113
 S           0.03637399947955   -1.47295907896541   -0.59779751644976
O          -1.09794545881961   -0.45986667745473   -0.80323505583347
O          -0.21839001987702   -2.32278582191298    0.51904121109253
O           1.28832121867870   -0.73915857054829   -0.50065013265907
O           0.01475372029803   -2.28475543257316   -1.88603620144667
H           0.06340311416817   -1.63256120309114   -2.66990421615751
H           1.53437778520793   -0.09200895323599    0.99876378910771
O           1.51731442812713    0.41068643682795    1.84504400387081
H           2.43038908965484    0.57248372968237    2.08771289020185
O          -2.37928125943899    0.67514440272491    2.65103947470616
H          -2.54283054803969    1.08898785290361    3.49946219233242
O           0.26696742159593   -0.58729992057202   -3.76049889050290
H           0.39172724988587    0.27531606084049   -3.26135644617749
H           1.09682525416657   -0.77093901097751   -4.20651574260153
O          -0.50581348678644   -1.17867662300909    2.97451421758738
H           0.28564552992562   -0.63729146159466    2.83969698134303
H          -1.79900723419699   -0.10509721814245    2.82908953137193
H          -0.52286790989443   -1.78114165654887    2.21243577212937
O          -0.76866353719892    1.51102705963729    0.73729944203119
H          -1.47764192981113    1.33872007810315    1.40538453956385
H           0.06516668271287    1.32114565511585    1.19998226239360
H          -0.99796684063473    0.36565690649749   -0.19030462855242
N           0.77472428594405    1.49142838063254   -2.21113662006299
H          -0.05850075628716    1.91335983336003   -1.81976005207061
H           1.44358559785749    2.22935767122740   -2.39139646073421
H           1.15933359331447    0.87122756108726   -1.50087434445226
