    26
        -50.45352416  Gyration_radius:  2.57398598819 Dipole_moment: 4.227
 S          -0.57824350072476   -0.63243432615722    1.12152159289126
O          -1.11230208239118    0.47980559358419    1.99366349535546
O           0.81052898959611   -0.41291790622168    0.79912121003002
O          -1.39317063272672   -0.78769067489857   -0.07162816524041
O          -0.73598527539957   -1.87044542575621    1.99985863264604
H          -0.88022928316573   -2.65683634417681    1.35132923860406
H          -1.30539268209757    0.45993300778162   -1.12424108171108
O          -1.21991264091105    1.29738063347757   -1.63868686616496
H          -1.94903345853568    1.30994976203094   -2.26132972034234
O           1.26275934250130    3.50260104002054    0.57309023890822
H           1.48754581155944    4.31492852947120    0.11726842939260
O          -1.00001358755969   -3.50752532665029    0.10941096609292
H          -0.05607359069982   -3.44602326307379   -0.21383289126685
H          -1.49016202259007   -2.84964773897128   -0.39859329321808
O           1.54521380839675    1.41505525302182   -1.05526363871830
H           1.53740783513432    2.76060746757400   -0.01725336375525
H           1.44079730618006    0.72067400233932   -0.38055857081832
H           0.70333618481791    1.43556475094899   -1.52936572697157
O          -1.21551147891476    2.61495819983787    0.73472379483709
H          -1.17426938494500    1.42948301572401    1.49826660658025
H          -0.31764754499395    3.02974812885499    0.81121907013507
H          -1.28386516882424    2.30122844147617   -0.18975765338889
N           1.49169868459113   -2.86516933262699   -0.54652164860005
H           1.76881584483344   -2.69051097321972   -1.50457068551461
H           2.23646647797339   -3.38892165837744   -0.10390088550000
H           1.42724206922043   -1.96379487583075   -0.07396906428411
