    26
        -50.45352412  Gyration_radius:  2.57397729649 Dipole_moment: 4.226
 S           0.61152283365198    1.18718424569406   -0.45688580380607
O           0.47630019223707    1.16907391739204   -1.96167258160232
O           1.20998419669725   -0.03502235423552    0.02141564853400
O          -0.67293984733496    1.44361554459368    0.17250244334591
O           1.53830453931888    2.37304668126184   -0.20413715396395
H           1.27591836634353    2.74084700241893    0.72078856011542
H          -1.76732977945593    0.24076566578979    0.00403051582788
O          -2.35356704470837   -0.51897611432675   -0.22480497385487
H          -3.25202971361441   -0.23039978026290   -0.05470354458587
O          -0.01111598472130   -2.87238351836348   -2.43712465456646
H          -0.45925799044569   -3.69386399188238   -2.64325635775794
O           0.64704250570057    2.92637425920154    2.08132493294101
H           1.01375404496414    2.11447644786184    2.53479020834710
H          -0.24309870284674    2.68403749740393    1.79838646395993
O          -1.18897400997675   -0.52475576723163   -2.67695103551556
H          -0.23076691047109    0.44918340508707   -2.32634332091937
H          -0.70247929156550   -1.38675678801895   -2.74244343276742
H          -1.75471045946693   -0.60029145719886   -1.88198294092309
O          -0.21542556016625   -2.33030317745888    0.16158148409132
H           0.02061851758267   -2.80585350384509   -1.45269665616335
H           0.41818959746843   -1.59107983830199    0.18091662444357
H          -1.08800928678295   -1.91641428828096    0.19592508190953
N           1.58313271146949    0.55204233676135    2.81461876868052
H           1.55103320867823    0.19851184864299    1.85859442369975
H           1.04766646672593   -0.08203077996897    3.39458630595119
H           2.54623742052174    0.50897248728454    3.12354095471061
