    26
        -50.44833791  Gyration_radius:  2.53202169936 Dipole_moment: 7.405
 S          -0.70192100456787   -1.29306925213692   -0.26224991616252
O          -0.68081543658217   -1.35578184790843    1.16205276857424
O           0.63561352191554   -0.75470179968339   -0.80893342158679
O          -1.76268047822053   -0.47235130491419   -0.81468261912412
O          -0.76457697111613   -2.69296976658464   -0.86570414062960
H          -0.81312521770528   -2.50784500958783   -1.87745935127592
H          -1.89692268682166    0.94547888847977    0.03551018692542
O          -1.78852383514242    1.81237931989923    0.48902061361984
H          -2.54257807142333    2.34902473908162    0.23811760389583
O           1.90236017522485    1.47041954339381    2.03347767872964
H           2.36529998064125    1.99574053217166    2.68679072372653
O           3.07598179701119   -0.87743525210112    0.84946420717047
H           2.36060330710679   -1.09265065006222    0.24519791420198
H           2.78037648205727   -0.10045716844641    1.34125026827393
O           0.79525303407865    1.70503088163050   -0.37710919746561
H           1.35309069981867    1.73009793367044    0.43181040441324
H           0.73576578975472    0.28620337560921   -0.67288591412667
H          -0.10595578212480    1.93974386930147   -0.08408381574861
O          -0.52414674415742    0.80306445916359    2.79985218046600
H          -1.09206477409564    1.32129149789571    2.21254944055959
H          -0.57736915935749   -0.10327057143767    2.45306481404863
H           1.03696191440125    1.19940193430309    2.43927185250052
N          -0.92132417940258   -1.75578122169360   -3.23395263606542
H          -1.45111515388773   -0.97305354879241   -2.86413755577997
H          -1.40610545611527   -2.15342623144728   -4.02740598414051
H          -0.01208175128570   -1.42508334946782   -3.52882608486638
