    26
        -50.45352423  Gyration_radius:  2.57389045738 Dipole_moment: 4.230
 S           1.22843667243089   -0.14807812786962   -0.67969467505209
O           1.86572583644842    1.22185807941961   -0.68508901614661
O          -0.11512600302479   -0.09354125352616   -1.20177070628081
O           1.26900178957930   -0.72945656918298    0.65150777343732
O           2.13176193167107   -0.95664249554764   -1.60683868580442
H           2.08261787836420   -1.92746442726313   -1.26845945293737
H           0.32251780110523    0.02150319228566    1.75284979037340
O          -1.54032813367053    3.43459596684435   -0.14757271679590
H          -2.16471149965497    4.00859971222916    0.29835923632987
O          -0.22884982668139    0.59847373413970    2.33280489401734
H           0.01224613239612    0.38630054124421    3.23630613976706
O           1.70517248647450   -3.18386716858002   -0.51952861552636
H           0.75621993055833   -3.26730427429149   -0.82238232674187
H           1.66356957394808   -2.75888204690974    0.34582066759390
O           0.74938670688200    2.71880202017647    0.94786343628240
H           1.41749144802297    1.91258487550790    0.00276922365260
H          -0.02883404031574    3.11578922719692    0.47787472245262
H           0.37417238891633    2.07857313172322    1.58585827903611
O          -2.15670266041597    0.88061458541717    0.28256821679762
H          -1.53774774220703    0.49618083138442   -0.36353165233797
H          -1.74547112191679    0.73406316304331    1.14475988371122
H          -1.90542140097026    2.51915759987083   -0.08983935113075
N          -0.80758979094194   -2.88474982031088   -1.32497493072787
H          -0.71396760940976   -1.87044507331323   -1.37409527096134
H          -1.59427238039555   -3.09165216151496   -0.72207974726407
H          -1.03929838771338   -3.21501326229363   -2.25348511607630
