    26
        -50.45352433  Gyration_radius:  2.57383088521 Dipole_moment: 4.240
 S           0.26739447478161   -0.77770236141547   -1.14817711063422
O           1.72961993423999   -0.56185507385949   -1.46162532424327
O          -0.42539195797496    0.48184339552320   -1.02866056442835
O           0.11152299543155   -1.59661420491232    0.04213848109844
O          -0.23823435147429   -1.55511251980372   -2.36020542885835
H          -1.00965119240381   -2.14213482673384   -2.01398519058842
H           0.58931072700957   -0.87956045105521    1.43113709318024
O           0.97238915033875   -0.36732234697397    2.18226607146774
H           1.11852159824355   -0.99429533292839    2.89288994884314
O           2.20597444868768    3.01859447589002    0.47084391325459
H           2.52111800572074    3.63449954383023    1.13380173781617
O          -2.07508601744976   -2.77343710660683   -1.14934973523591
H          -1.51965775616440   -2.84052632399205   -0.36314730066406
H          -2.65229497988978   -1.97084501565782   -1.00101387474007
O           2.89958416055361    0.47409878597773    0.46503744593169
H           2.33450386972011    0.20118720114711    1.21598439178226
H           2.28404634047959   -0.11168424158414   -0.66080325793446
H           2.77212510985499    1.45385759289672    0.37617667605632
O          -0.15926946009399    2.02276733252097    1.17918822883764
H          -0.36357137523469    1.58181274778392    0.33531551779123
H           0.11101807420676    1.31271130866952    1.77646298536482
H           1.26920756521116    2.80867042570794    0.70114969105214
N          -3.15969326048803   -0.37955808176835   -0.76936291622635
H          -3.77653506611439   -0.02935058120360   -1.49168287904626
H          -2.26111093170671    0.09018915994165   -0.87833247716464
H          -3.54584010540949   -0.10023350122402    0.12395387652721
