    26
        -50.45352418  Gyration_radius:  2.5738398102 Dipole_moment: 4.229
 S           0.77522621414066   -0.07348636362832   -1.17772100319315
O           1.07540005470710   -0.53319441284362    0.15615206788609
O           1.31736811985854    1.31858432475258   -1.40379610032102
O          -0.64941918086652   -0.12322959629322   -1.45993375543539
O           1.52038778293877   -0.91046722999153   -2.21384346367806
H           0.88502854271650   -1.68213717189579   -2.45926954081450
H          -1.58238199913207    0.71247826042297   -0.40912988070207
O          -2.02338504509241    1.30375285225152    0.24594295627124
H          -2.89909870769280    1.48698869487189   -0.09899476217827
O           1.00502583380097    2.68004325469322    2.44847163639888
H           0.67717505498985    3.20392028629489    3.18076515117683
O          -0.27590281841738   -2.64801544808503   -2.49492905098214
H          -0.95455787547905   -1.97042464318107   -2.38781520010378
H          -0.16433888873411   -3.05996393433091   -1.59101673718715
O          -0.31188399616178    0.37123492327764    2.29576463381082
H          -1.10171734823543    0.64104258728006    1.80861056068903
H           0.26335318912777   -0.05221770645646    1.63386324917540
H           0.60105788920737    1.78367314326766    2.53773214015027
O           0.10177784598293    2.97342992412112   -0.01190384903512
H           0.54943947492404    2.97839640567377    0.87334591756367
H           0.82801415617043    2.07541085993811   -0.82163097734211
H          -0.75755400651917    2.52691109553916    0.12914323329242
N           0.18963877001236   -3.26965038061397    0.04452590643826
H           0.91632284081423   -3.94978313007072    0.22949403288555
H          -0.56022877170485   -3.43680456282993    0.70399035134668
H           0.57525286907029   -2.34649203156085    0.24218246300125
