    26
        -50.45352425  Gyration_radius:  2.5737275525 Dipole_moment: 4.243
 S          -0.40660042130046   -0.54161736131366   -1.23984760808420
O           0.00428122011014   -1.21311011577940   -0.03111746484044
O           0.76369857116419   -0.35162007809307   -2.17625480366768
O          -1.05367482257413    0.72907577502200   -0.95995939549001
O          -1.35877679588179   -1.42152107941713   -2.04514128123648
H          -2.30499488889049   -1.17885462609195   -1.72087747785361
H          -0.15808541449550    1.77197916463313   -0.07596835134228
O           3.71163475030461   -0.02501406369661    0.64596636820752
H           4.39483735386254    0.39285461446511    1.17208456099155
O           0.50243429508509    2.33114473798999    0.39776291411173
H           0.18546887264629    3.23430981725395    0.34059924968649
O          -3.47002016569808   -0.59348284674792   -0.95789338662113
H          -3.09847825944206    0.29527481685464   -0.90173553190388
H          -3.29993262942777   -1.01108071361445   -0.06571671989040
O           2.39122744543015    1.26702655225264   -1.23602798244754
H           2.99464875589651    0.74546436354783   -0.64607752694579
H           1.50191884818266    0.33889114869889   -1.81551787833399
H           1.82760576233138    1.79623847884449   -0.63595561890559
O           1.36791923704703    0.09832146437437    1.90274225001765
H           2.91260662040972   -0.09374216404346    1.22169608206593
H           1.07531733123917    0.98689226944485    1.66032342345751
H           0.87969898372333   -0.50109925887748    1.31055260269439
N          -2.51819273814043   -1.65526439518546    1.28224401705164
H          -1.55715499134929   -1.60649890811599    0.94460705914808
H          -2.72947902568117   -2.62888818057484    1.46191469523133
H          -2.55790788600431   -1.16567942089936    2.16759782554847
