    26
        -50.45352422  Gyration_radius:  2.57350877942 Dipole_moment: 4.241
 S           0.08038682117578   -1.01905864802423    0.97597642793462
O           0.64235724937701   -0.36155111139607    2.21474397725798
O           0.92311874989032   -0.76839547297498   -0.16775159140457
O          -1.28929576829683   -0.59300083747402    0.74336155356470
O           0.08927176170055   -2.50275944355267    1.33371470016242
H          -0.69012222942619   -2.92156218186262    0.80794209721055
H          -1.45341759680752    0.97767868087745    0.32185995461353
O           2.45812414470422    2.82607196365255    0.39368192119506
H           2.61194069723112    3.74008713435045    0.15057930676502
O          -1.42462313566712    1.94785020558821    0.14512175854377
H          -2.31918797111227    2.27258515618763    0.26237230787382
O          -1.84792065180595   -3.14308453741807   -0.13690263035129
H          -1.37188120845961   -3.00367702970564   -1.00477725876304
H          -2.28059418892900   -2.30293239631769    0.05790881051710
O           0.91271572004201    1.63198392873822   -1.41560349252968
H           1.02034850170898    0.72223626538701   -1.08520451862498
H           0.03513667718654    1.90660315797080   -1.11823266401217
H           2.02317838383621    2.39575040705194   -0.38107853286916
O           0.52017990651247    2.10927864535866    2.03233981741805
H           1.33920972844294    2.39511796223974    1.55096744619912
H          -0.21484279851231    2.22976456502884    1.39752268915539
H           0.61670160568962    0.71083785719851    2.18713414254124
N          -0.30269966056334   -2.42769917655023   -2.17463952859047
H           0.31034150577245   -3.13303982493857   -2.56394586559595
H           0.26414660317358   -1.81984989954779   -1.58376460590265
H          -0.65257285652335   -1.86923536985111   -2.94332623229704
