    26
        -50.45352415  Gyration_radius:  2.5734174029 Dipole_moment: 4.239
 S           1.02876650537857    0.62624019890071    0.73994623385019
O           1.37730855318156    1.88475010700661   -0.01982119185562
O           1.08426250827965   -0.52855478526318   -0.12290867522390
O          -0.26585803922928    0.75736241848625    1.38676651596424
O           2.11669145545623    0.55048627104437    1.80772098326322
H           1.68778092588552    0.06828823513780    2.60946056768687
H          -1.53800353085017    0.82377981960881    0.36262931806150
O          -0.03008641225012    0.74097036178525   -3.69156689020419
H          -0.59831594878499    0.73928900891842   -4.46311820051813
O          -2.20768812304552    0.92171581984044   -0.35516604316618
H          -2.99852329142369    1.27453913462928    0.05659230679502
O           0.73686830150216   -0.69112142753755    3.50475337837428
H           0.70051035453432   -1.55374877536657    3.00102111699193
H          -0.04807987344317   -0.20019757474298    3.23289229581730
O          -0.88510200507156   -1.03903450020366   -1.90606244861365
H          -0.29303254901809   -0.03728118917653   -3.14400540169776
H          -0.11250501191109   -0.99782074273634   -1.31461547226453
H          -1.57461629554132   -0.53243921250006   -1.45669883905793
O          -0.37827936974351    2.42025873985710   -1.68830288864790
H          -0.15330927798024    1.90541636115984   -2.50596202064298
H          -1.16346541190225    1.97866745828965   -1.30583717275844
H           0.65031174058113    2.16128892556680   -0.75917901567603
N           0.69288792507930   -2.68114314322339    1.74687072792645
H          -0.15420898274276   -3.19481989102412    1.53779267403080
H           1.45397740048543   -3.34787842533329    1.77992412700625
H           0.87170845276325   -2.04901320291816    0.96687400435874
