    26
        -50.45234086  Gyration_radius:  2.45881314119 Dipole_moment: 5.680
 S           1.52974352726484    0.80156420810367    1.33424659479328
O           1.32262421563216    1.20727578260140   -0.04749084911611
O           2.33621119998455   -0.49275268100228    1.35796428810638
O           2.11730517268399    1.77817654711039    2.17418895270045
O           0.13810998976838    0.39443973587403    1.89556254903263
O          -0.46455922405623   -0.94035050797154   -2.03565384487864
H          -0.69831225819767   -1.46952940926015   -2.79916590150116
O          -0.70947831624653    2.79784127939765   -0.60655450413001
H           0.11888588760141    2.32252464849656   -0.37611943601154
H          -0.75428085044299    3.55791666881126   -0.02519446095818
O          -1.65177264430316    0.34028400901555    0.06161464617564
H          -1.57854140309634    1.26912841081376   -0.23171821124275
H          -1.31891632913446   -0.19115030031212   -0.68552016671411
H          -0.56893503983464    0.33767782327448    1.16758477581118
O           0.84536820140316    1.24136756697859   -2.69772791244005
H           0.04649470006577   -0.15753455771933   -2.37240795858965
H           0.23233939212283    1.98022370713846   -2.62474568854363
H           1.33109597006762    1.23589446624807   -1.85633359601685
O           0.90027135061871   -2.09470514837666    0.05417198735155
H           0.13841241426780   -2.26475532933541    0.66671135446872
H           0.51287561716886   -1.68834198361371   -0.74209817374160
H           1.81495937138962   -1.18024302667055    0.79566203842444
N          -1.21394014157437   -2.25459887639316    1.72016536750033
H          -0.85829730056113   -1.70693509791977    2.49506797560716
H          -1.61226348031220   -3.10892834815875    2.08805726965760
H          -1.95540000228173   -1.71448957713868    1.28973291425529
