    26
        -50.45352428  Gyration_radius:  2.57376304887 Dipole_moment: 4.235
 S          -0.56316580040354   -0.16659184295710    1.28424613265996
O           0.56907744461044   -0.61860764244536    2.17676538594312
O          -0.66501454296815   -1.00632766581649    0.11582215705771
O          -0.41296307575937    1.23528790126106    0.93226420499618
O          -1.79390793818336   -0.33078175718629    2.17172452343190
H          -2.46363963131766    0.38436710487760    1.85630997348284
H           0.85682350299239    1.56124492914768   -0.04439344962376
O           1.68705889774113    1.63548596209947   -0.57209075277472
H           1.92932731447231    2.56325474865700   -0.56942834032062
O           3.02617709212697   -2.11872924660512   -0.73829576238865
H           3.79378471033881   -2.17649822098715   -1.30893245392370
O          -3.15155457887787    1.48575757385645    1.08465394164354
H          -2.35333188252109    2.01260306814610    0.95648285307354
H          -3.29591873457376    1.00464358170158    0.22040779172938
O           2.76122446281864   -0.22958947588461    1.08276778121376
H           2.55175729126027    0.49725627692288    0.46186429290962
H           1.54282080919840   -0.47594687348648    1.74942300180454
H           2.93624782583029   -1.02430182460859    0.51539142448827
O           1.07592139819043   -0.76291519747909   -1.94085373670596
H           0.37426068366412   -0.96201194500238   -1.29559689427046
H           1.34104322418741    0.14728673790427   -1.75320482018841
H           2.29119171940466   -1.75446125368966   -1.28761314475665
N          -3.08521114038496   -0.02753535001264   -1.09649574430162
H          -2.23938372749868   -0.50649461765221   -0.78803124866976
H          -2.90165157252049    0.35942498417053   -2.01395327827385
H          -3.81097377242736   -0.72581995499300   -1.19923381796319
