    26
        -50.45352413  Gyration_radius:  2.57337352606 Dipole_moment: 4.238
 S          -1.23129932271098   -0.23217971552447    0.65466972646930
O          -0.94579696795923   -0.09867570441651    2.13224903041281
O          -0.32334548233214   -1.16763676831114    0.03690966565581
O          -1.19618589092694    1.06681217044427    0.00423078701246
O          -2.65931173285443   -0.76996860015184    0.62224654692743
H          -3.06944280793108   -0.41998471309971   -0.25444037755447
H           0.28333649728735    1.75856834223140   -0.06077477430097
O           3.08397007882039   -0.81610411561890    1.99927273756389
H           4.02149225736756   -0.62837931919809    2.06246099964924
O           1.20634640270420    2.09620562832992    0.02503151664464
H           1.16903587017742    3.03816809996772   -0.15036702359520
O          -3.26668126572235    0.22519651286401   -1.60622672019235
H          -2.67316907621152   -0.36582839845144   -2.15176577590160
H          -2.73843865617473    1.00750183073675   -1.40608932075488
O           1.24425211364931    1.00310177929898    2.50958110882535
H           1.92784767681341    0.28487495573896    2.47695447039330
H           1.35912837982114    1.51476312090301    1.68325674112108
H          -0.00595435079969    0.37017696550655    2.35263019398806
O           2.23783239110789   -0.48383148243830   -0.50299536337558
H           2.86276510569436   -0.83525539726266    1.03732156453589
H           1.35243108195928   -0.87137547218379   -0.38347866448239
H           2.09470329195327    0.47172478954783   -0.52349730936614
N          -1.40132840170054   -1.36755274604864   -2.62415607812941
H          -0.91555118327123   -1.43580159999995   -1.73010778780265
H          -0.73381368954493   -1.04177001647751   -3.31222056048391
H          -1.68282233845300   -2.30275012656064   -2.89069535278107
