    26
        -50.45352423  Gyration_radius:  2.57381052462 Dipole_moment: 4.234
 S           0.81225225736366   -0.03190778495090   -1.15463560147257
O           2.23420237722011   -0.14809056587517   -0.65713373955977
O           0.13744027297418    1.08016684133715   -0.53129316378993
O           0.09443161702760   -1.28004447942236   -0.95817654263377
O           0.98544416652258    0.21581970988100   -2.65055851605646
H           0.15107837198323   -0.18693647389820   -3.09924204150957
H          -0.18880112328312   -1.66526460083543    0.60512009071501
O          -0.23529066331449   -1.81714414071801    1.57878968870100
H          -0.45278708308789   -2.74315036120784    1.69979444134901
O           1.64039201459407    1.35380627053449    3.10959120069903
H           1.57693184500678    1.35215060464232    4.06569655913214
O          -1.19580668053980   -0.82320059665360   -3.34809760493714
H          -1.10461833725275   -1.49098465320864   -2.65753584422281
H          -1.77932161343749   -0.11210023638044   -2.95675092811982
O           2.27872321816632   -0.80462777282554    1.73484611017715
H           2.31148866594984   -0.42694172793368    0.37602445001697
H           2.19923704075343    0.03454762013201    2.25781493469548
H           1.41893722528302   -1.26114228871610    1.83543670615491
O          -0.75136318984962    0.92875330094465    2.01961786164863
H          -0.80385233142507   -0.03534380712626    2.06059931453900
H           0.71571511814853    1.35506607575696    2.76393518719874
H          -0.50290128671997    1.13147534867654    1.10013502055053
N          -2.35200972718790    1.13404074905119   -1.97554807925268
H          -2.52970872383743    2.00184541670239   -2.46566409774598
H          -1.52422088433212    1.27231814453994   -1.39624150932354
H          -3.13559254678223    0.96688942739975   -1.35652388691178
