    26
        -50.45352424  Gyration_radius:  2.57357192295 Dipole_moment: 4.240
 S          -0.81001335624195   -1.15202117135910    0.11723551154410
O          -1.83966230653104   -0.82745832078914    1.17421431973242
O           0.52513106177566   -0.90944223437706    0.60678313101808
O          -1.07982621097207   -0.41715381268678   -1.10703193343156
O          -1.02626523147953   -2.64166569512652   -0.13506100846184
H          -0.75820335527001   -2.80072174089764   -1.11594175910436
H          -0.86237531018347    1.19910562608777   -0.99538869816839
O           0.22366488213930    2.15142955027908    3.08322256542827
H           0.43105018915226    3.03926516018866    3.37804782763686
O          -0.76350366662874    2.15702588147256   -0.78117964692490
H          -1.19657238988620    2.64007446880538   -1.48727423082512
O          -0.23751249541516   -2.62494968264369   -2.52312566376691
H           0.72544913793767   -2.45585960378654   -2.31481102996287
H          -0.63042400530195   -1.75318617250719   -2.65235342544111
O           1.50497565193281    1.60383661420857    0.81472031375140
H           1.30216800193916    0.65173764746736    0.78785664911200
H           0.91214659656376    2.00682579209926    0.16652062585268
H           0.84129233116005    1.94762631221310    2.34050509350264
O          -1.90377857241886    1.61157094081944    1.62139239820105
H          -1.20176934851190    1.79036337015286    2.29922463794007
H          -1.56093757477661    1.98076030585983    0.78240121485736
H          -1.90680552782188    0.21737540782574    1.40905324607821
N           2.13481942727941   -1.94317342064719   -1.54371537176758
H           1.71982069250746   -1.56695216440155   -0.69156079239314
H           2.69770355910025   -1.21161843914861   -1.95986639180471
H           2.75942782033250   -2.69279462938066   -1.27386755255610
