    26
        -50.45352431  Gyration_radius:  2.57375280035 Dipole_moment: 4.241
 S           0.88302429386252   -0.58969050125867    0.93134636538810
O           0.25020641072728   -0.38440695371053    2.28792146671237
O           0.99340314655107    0.66016665396316    0.21974645088014
O           0.15067618303655   -1.58518913314988    0.16693013944657
O           2.26633302432467   -1.13753772148191    1.27114176654351
H           2.52970499903256   -1.74205284639168    0.48071215119771
H          -1.34844553594389   -1.12445555599538   -0.29411211710913
O          -2.12814705456473    2.81059952904571    1.32991156639449
H          -2.93702904016763    3.29662739965675    1.16356111626855
O          -2.25088861715088   -0.75756329782875   -0.44983226466484
H          -2.80574486287298   -1.49758394066355   -0.70267975996691
O           2.55672245026162   -2.46313732804250   -0.84613645419126
H           1.61650755219998   -2.68017133946753   -0.84565638962751
H           2.64815122790170   -1.67320440504038   -1.45189825453099
O          -1.16475239345080    1.80750018602803   -0.94039510585461
H          -1.68824187086536    0.99921273609783   -1.02140151275130
H          -1.73523509704375    2.60358535997225    0.44825564881525
H          -0.30326817995776    1.51894782229359   -0.58984671388237
O          -2.13007921342912    0.27570621254582    2.05777562825938
H          -2.13760266195622    1.26110483902016    1.94363867823737
H          -2.35897980999315   -0.09359410240139    1.18085795856963
H          -0.78172555656102   -0.09348408769986    2.24630726777403
N           2.50902425998346   -0.12223525465930   -2.09898372656923
H           1.97593322121136    0.02229973890423   -2.94754375231440
H           3.38961712924562    0.36587638459831   -2.20467339475145
H           2.00083600538495    0.32267960535154   -1.33494676838590
