    26
        -50.45352430  Gyration_radius:  2.57373357704 Dipole_moment: 4.238
 S          -1.21300645124230   -0.36873091476524    0.62270162806530
O          -0.96416251157139   -0.26085839572032    2.10906486369960
O          -0.21217155410109   -1.19347213273846   -0.00882063233183
O          -1.28958599583512    0.94971257845286    0.01644875053169
O          -2.58377404312521   -1.03531350060613    0.54605653580184
H          -3.01322931501352   -0.69226084020692   -0.32426484633467
H           0.12019825009075    1.77697859554514    0.00198290206698
O           1.00628885929420    2.19540862906479    0.11620897911137
H           0.88406366891815    3.13546065461058   -0.02798725036182
O           3.11819729273254   -0.59718820292743    2.02813925741104
H           4.03305347440508   -0.32571565967059    2.11493070864352
O          -3.25194641564899   -0.01975356111132   -1.65545478038942
H          -2.80180107515848    0.80052445224189   -1.41958237271176
H          -2.59796955142807   -0.53348516915676   -2.21011993916297
O           2.28287238783267   -0.25780327863238   -0.47700306348561
H           2.05151327188075    0.68046498544202   -0.46853941106485
H           2.91456875387111   -0.60337970289680    1.06220098863105
H           1.43583021254695   -0.72980116873366   -0.38736455324765
O           1.10843458988904    1.02451367622700    2.56337152630632
H           1.85650469786724    0.37444696758258    2.51984811614028
H           1.18768198377348    1.57290006399053    1.75668150407216
H          -0.07536242547324    0.28433324558626    2.36229443443767
N          -1.23189041941532   -1.39614425092394   -2.69298849563581
H          -0.75392190731884   -1.45101121880889   -1.79382340747772
H          -0.58806945879661   -0.98653547998230   -3.35845872629116
H          -1.42231630925687   -2.34329036156855   -2.99552271615842
