    26
        -50.47250307  Gyration_radius:  2.48728669944 Dipole_moment: 2.883
 S          -0.82951569768057    1.71758530587228    1.22744398091317
O           0.52962352964059    1.38158389168792    0.84883275658792
O          -1.46188436142067    0.65060343747940    1.99368146991384
O          -1.65117919035154    2.14678793526083    0.11183827719751
O          -0.72088483897886    2.96371214909464    2.19947866432286
H          -1.63502326548037    3.21319712207088    2.27996638563676
H          -1.69066948647197    1.07807317073995   -1.06924087373678
O          -1.65292697608115    0.43012354556143   -1.82093833097556
H          -2.45975998012284    0.55992078195577   -2.32145156265962
O           1.98101024265386   -1.23638900150280   -1.46221231656264
H           2.66850355927437   -1.42128778233966   -2.10226735576980
O           2.12918338643716   -0.75683679307972    1.24786475906636
H           2.27600827733411   -0.99904304512027    0.31518121134416
H           1.76799160440076    0.14827680428779    1.21596763559959
O           1.03111516084055    1.16964523134869   -1.76652402092879
H           0.92173677182113    1.41219043135863   -0.82500503068501
H           1.68409018391139   -0.29487426799791   -1.62933542614985
H           0.12825376462914    1.02046035556360   -2.08347628899650
O          -0.63849908263769   -1.99971979282808   -1.08852405908970
H          -0.55918978442724   -1.89042108459680    0.50162898613853
H          -1.07954892238265   -1.18548455079240   -1.39668493810487
H           0.29855170751916   -1.89218745771914   -1.33263993611916
N          -0.32960038091160   -1.64717367476273    1.50999451614315
H          -0.83838758222702   -0.75010910407411    1.76001207577618
H           0.71059282481249   -1.42229115055170    1.54151654878213
H          -0.57959145410079   -2.39634242691636    2.14489285235610
