    26
        -50.47250261  Gyration_radius:  2.48738654082 Dipole_moment: 2.870
 S           0.67130251518292   -1.94651272870414    0.95196983699768
O           1.07589153954359   -2.28417440858465   -0.40714604472352
O          -0.60317748564570   -1.25467032619704    0.98212168215027
O           1.72106324968623   -1.25625911740895    1.67689510372927
O           0.44511677324540   -3.31997220662452    1.70837972406564
H           1.34021513924803   -3.62931943004697    1.79608262168185
H           1.92724301469133    0.24318439553260    1.17822678835765
O           1.99955229921174    1.19332097467097    0.89858691181697
H           2.89455408932748    1.46286507721073    1.10990125706253
O          -1.72475466674352    2.13237648602376   -0.26911635778244
H          -2.28501876545559    2.88718925656845   -0.08788523851860
O          -2.37156376386565   -0.47129324708334   -0.90083591600007
H          -2.34684826893901    0.48751278431234   -0.72704232922624
H          -1.95767554699288   -0.87699076329929   -0.11661237856773
O           0.72236995151442    1.71156063472469   -1.46170791827018
H           1.26145326769699    1.57826039215502   -0.65919338087470
H           0.33931802168306    0.25517761133461   -1.99055694979289
H          -0.14065480597613    2.03023245211843   -1.14120878907842
O          -0.59485921514888    1.25182967962156    1.90639257600034
H          -1.34640626076063    1.84247365038595    0.61136770250555
H          -0.65859764110350    0.29089051272465    1.73403811695479
H           0.34239067981915    1.45819257135015    1.77633075924800
N          -0.06923355805140   -0.71336417820954   -2.14425519904462
H          -1.08049733689668   -0.67484109932341   -1.81333566163179
H           0.43146227643701   -1.39175440040628   -1.49998947028134
H           0.00735451829228   -1.00591455284585   -3.11140745677747
