    26
        -50.47250239  Gyration_radius:  2.48740759964 Dipole_moment: 2.866
 S          -0.69488823499340    1.53072319417141   -1.52319493529685
O           0.63115394027226    1.18812469848376   -1.04562678625576
O          -1.56622442050161    1.97248493064681   -0.44129714980387
O          -1.30774711512537    0.48884591932831   -2.32498092908034
O          -0.50859571442431    2.77404554423012   -2.48712934103282
H          -1.37018589464869    2.82581061482987   -2.88649986091571
H          -1.37008107667955   -0.91136229128446   -1.56654342066389
O           1.92511839420840   -1.55359499711447    1.21412356410822
H           2.64763288481425   -2.16148680503279    1.37192210252342
O          -1.34383523597697   -1.78972773558946   -1.10402926870661
H          -2.05642300699578   -2.30763413233186   -1.48131394449162
O           1.82720285124817    1.19610368230378    1.37434948845573
H           2.04290158605041    0.24703698664417    1.42807345542478
H           1.61360187744624    1.34992064385050    0.43541672047651
O           1.39673420568879   -1.35559941948271   -1.32877333881959
H           1.79728319098629   -1.51691628062146    0.22176932161355
H           0.52443057527189   -1.76775762629982   -1.41331629173179
H           1.21725745795133   -0.39490796696333   -1.37375231085138
O          -0.80675340348509   -1.57529364137924    1.56756878985997
H          -0.89715290190419   -0.00292291388056    1.82735973864087
H          -1.07858853301162   -1.71551282514847    0.64084764462124
H           0.15750427363358   -1.71382504086730    1.57595682763356
N          -0.75183003889853    1.04900771588511    1.85645298596496
H           0.29977418355872    1.21350207039166    1.83001986041894
H          -1.18548401585193    1.46722309661998    2.67124114923406
H          -1.14280582863346    1.46371257861036    0.96135593867451
