    26
        -50.47250275  Gyration_radius:  2.48730650903 Dipole_moment: 2.868
 S           1.39105571209217   -1.11372209323796   -1.40289767451748
O           0.21617211604881   -1.93867634381551   -1.65602813883257
O           1.51956016267124   -0.76963708799513    0.00019967330349
O           1.45115744862742    0.03419324657414   -2.28752326169188
O           2.65160619417667   -2.00637569902412   -1.75495844680507
H           2.58557235239926   -2.05007997587053   -2.70267320292358
H           0.37489845019906    1.15117938618945   -1.92289447054978
O          -0.25843052919499    1.86320129080355   -1.64318107279960
H          -0.43757699262739    2.38068975227686   -2.42960641320448
O          -0.55964282372646    1.36320968851420    2.32791947876276
H          -0.53107789545418    1.98252303726759    3.05738512587263
O           0.08356504731301   -1.31473136411072    2.22044666632727
H           0.80708556425394   -1.22433088989153    1.57306643361196
H          -0.14293715960095   -0.40000987848314    2.46955958051094
O           1.35681096504375    1.82249186716632    0.62462970151641
H           0.21296169026121    1.59038733316119    1.73294289528689
H           1.59557654837695    0.89825256298331    0.41013179723327
H           0.89116098209578    2.14041714859038   -0.16273218944202
O          -2.15150669167239    0.97119980102593    0.11457305003052
H          -1.93793392522222   -0.61040901313783    0.10278309357364
H          -1.74345837229465    1.21142061684688    0.96599205163986
H          -1.55511436730052    1.33358766922544   -0.56768947163459
N          -1.57828210051003   -1.60478477149925    0.20516822949304
H          -0.89751919226259   -1.79592215248817   -0.58610170996226
H          -2.33347597256677   -2.28049913966662    0.20634210543010
H          -1.01022720112603   -1.63357500140487    1.10514618977082
