    26
        -50.47250315  Gyration_radius:  2.48728945779 Dipole_moment: 2.885
 S          -0.31594296023604   -1.23737327943562   -1.87445786745544
O          -0.74260864851129   -1.44984230005581   -0.50466119616679
O           1.13470816644193   -1.14347698719618   -1.98554036925640
O          -0.98435885570886   -0.12493703105956   -2.52219821868776
O          -0.74368659801844   -2.53540018010230   -2.67554862645702
H          -0.56929201839776   -2.26381341840382   -3.57007163504484
H          -0.83297610002560    1.23916788718771   -1.71301554883292
O          -0.78261413940855    2.06546609571612   -1.16436012027160
H          -0.88686705363362    2.79517594057017   -1.77672699107120
O          -0.57294773188087    0.69747435412747    2.60314602623012
H          -1.02996779944564    0.95152074097649    3.40508081065238
O           0.54165374291400   -1.70993628753954    1.85585416525616
H           0.14846745293900   -0.94543484044497    2.31526406087387
H          -0.03304210379090   -1.85768142919212    1.08211380483986
O           1.10975821738052    1.92709215035661    0.80272955830554
H           0.57023092693747    1.63794852040755    1.56068952277646
H           1.89585627569675    0.58349254327306    0.45084787667073
H           0.47510955604775    2.07113420950582    0.07545384499516
O          -2.22820338122735    0.47383752325619    0.60455833095895
H          -1.84322672566256   -0.31559759165702    0.17358782823876
H          -1.27331880690665    0.61285684894702    1.89261826854917
H          -1.98441641047582    1.20891440906093    0.02304334657177
N           2.20212701772005   -0.41931671147329    0.27988378105092
H           1.69408414742962   -1.02094033364160    0.99649339307255
H           3.20866066957473   -0.52121412169099    0.33774836905235
H           1.84281316024791   -0.71911670149266   -0.67253240485124
