    26
        -50.47250194  Gyration_radius:  2.48723295215 Dipole_moment: 2.860
 S           1.54733779685703    0.42215601399901   -1.60392655489197
O           0.38973513445208    0.41678004084290   -2.48970927969027
O           1.46722723089116   -0.62292133594782   -0.60136166810537
O           1.80237656365464    1.73782750140889   -1.04897780078912
O           2.80421145191866    0.07463256631701   -2.50351674094623
H           2.89762715850609    0.87724773479764   -3.00490010301083
H           0.72688242294339    2.15141515908563    0.05209889640052
O           0.08635821592036    2.36688525683681    0.77971951120728
H           0.05543827064633    3.32345434478314    0.82891282802594
O          -0.86241497114785   -1.21907234855612    2.31583680735189
H          -0.92226737146423   -1.54001928905725    3.21578124155610
O          -0.32492985832192   -2.55939449942996   -0.03149260982018
H          -0.54843239095910   -2.28125560841062    0.87562448865264
H           0.49460744035685   -2.07602694525883   -0.24504318130226
O           1.31686025890753    0.15967749101513    1.94826222495671
H           0.99523907750168    1.06271439989242    1.81055567788028
H           0.00353512522904   -0.72091808796894    2.24965014759547
H           1.54787530872034   -0.15573699808578    1.05138961680488
O          -2.10025066687442    0.72680949470527    0.80926584620348
H          -1.95739195369059   -0.08464262880460   -0.55795253143287
H          -1.82187814725894    0.05563437095612    1.45816006630508
H          -1.38727895557378    1.39319472493460    0.80634510485034
N          -1.66089304276591   -0.72300790463486   -1.35359251866838
H          -1.24305229736331   -1.59477923128982   -0.90732823381172
H          -0.87209866266238   -0.24994561093225   -1.88290777228167
H          -2.43442314842242   -0.94070860119796   -1.97089345303983
