    26
        -50.47250274  Gyration_radius:  2.48735344452 Dipole_moment: 2.871
 S           0.04577057578871   -2.26674456992550    0.06846696570418
O          -0.81044089859519   -1.30507765431302    0.73624851378611
O           1.45127635776478   -2.06753463852026    0.40001179253914
O          -0.17101284287135   -2.33696561671616   -1.36400263734696
O          -0.35483129491633   -3.68742759032904    0.64372162815011
H           0.11643853339660   -4.26317269042222    0.05147796335967
H          -0.02308755831602   -0.91972740825086   -2.07741679668095
O           0.01079174504119   -0.01983362149381   -2.49602197599331
H           0.23567784743010   -0.16540659843226   -3.41613317258719
O          -1.19731482112746    2.44342994661286    0.43353448363129
H          -1.82120019740203    3.16940347009214    0.44724931643663
O          -0.37969394855015    0.74219035896342    2.44201081148708
H          -0.74352848263666    1.46124259461833    1.89362065293828
H          -0.70754377827125   -0.07712523549331    2.02716838782879
O           1.15354775446004    1.86587636555661   -0.88056529793593
H           0.80935805538919    1.22822058749415   -1.53425162388100
H           0.36467899619405    2.25706012639953   -0.46368015603628
H           1.74374868729131    0.99922487025113    0.32301148009898
O          -2.17649438883787    0.38159869401572   -0.82148744374314
H          -1.83336372951265   -0.32778660730692   -0.24161926530635
H          -1.65088000721869    1.68921486301831   -0.04384847507587
H          -1.63347920126599    0.32274432613715   -1.62126634453863
N           1.89391053066704    0.38201955625518    1.17446632420200
H           2.79694766349123    0.54548839263246    1.60418775874275
H           1.79269419955144   -0.63050270863465    0.87347777204654
H           1.08803023305609    0.57959079779087    1.84163930817381
