    26
        -50.47250223  Gyration_radius:  2.48710323337 Dipole_moment: 2.863
 S           0.28178889768838   -1.92475617221757   -1.16575025606357
O           1.21942929014541   -1.11592470377898   -0.41059140526794
O          -0.34351614572990   -1.16921991428914   -2.24418860044142
O          -0.69682590873690   -2.60205635519659   -0.33656690558437
O           1.13847081484909   -3.06595756852277   -1.85391692598202
H           0.45242427651611   -3.64212099389082   -2.17272308155101
H          -1.50888991849032   -1.59225549974007    0.59115918540660
O          -1.96064814690201   -0.95772969658994    1.20717160438017
H          -2.80429259091068   -1.35697356013922    1.42450745969250
O           0.79559070709820    1.89284989476746    1.83728974240506
H           1.10798566527589    2.32433584702221    2.63273626715175
O           2.06212338908494    1.44383494858809   -0.56867976673533
H           1.77280037079056    1.74120208239221    0.31342097841872
H           2.02999176318421    0.47021219244450   -0.52561270371198
O           0.64077188304278   -0.68696449334628    2.16180726100121
H           0.78265903713367    0.91116139430469    2.03388856436778
H          -0.31095162693643   -0.86406466425843    2.13451310240911
H           0.96638431279419   -0.97106770601464    1.28404019526779
O          -1.60550785143971    1.66075151158101    0.50742820358898
H          -1.83499701930341    0.74828586263144    0.76659875277998
H          -0.84120559474416    1.90059423400265    1.06185471426229
H          -0.92466571950341    1.55701324404560   -0.93258363659433
N          -0.27954956471053    1.39141182361432   -1.76017326229073
H           0.71340535921555    1.55280751467942   -1.41145356515516
H          -0.51248513319144    1.98806651637575   -2.54539293929626
H          -0.34029054621986    0.36656428153521   -2.02878297245836
