    26
        -50.47250247  Gyration_radius:  2.48740819057 Dipole_moment: 2.866
 S           1.46305551967572   -1.24117829512509   -1.21032649024959
O           2.44751002159335   -0.68194841824145   -0.29215373114126
O           0.47845571660736   -0.25604481293784   -1.61521118616152
O           0.87860504812415   -2.46730262342741   -0.70138870291633
O           2.25094548057752   -1.64282443528806   -2.52473728843644
H           2.74327077600352   -2.39699972659542   -2.21906607866310
H          -0.13208528044461   -2.21158791191256    0.50393163917685
O          -2.22469713974896    1.60479498195077    0.26324373034289
H          -3.11424473004702    1.95477518578036    0.21133761572803
O          -0.80521060787949   -2.02880728593635    1.21081393599343
H          -0.85870581151309   -2.82804181710639    1.73686121555241
O           0.07714029811393    2.35383821499788   -1.05465852744533
H          -0.80932085910623    2.27779284476123   -0.65651048984469
H           0.21587403483126    1.50643056781472   -1.51675922373132
O          -2.05472948961517   -0.71786190566630   -0.90343751102302
H          -1.89692941152328   -1.33048091991063   -0.17012941880739
H          -2.23638834416397    0.72836056874161   -0.22069293902776
H          -1.17859816159597   -0.61346492961728   -1.32613267908068
O          -0.63043861277550    0.50465445045006    2.22173110341407
H          -1.29605239001537    0.96766416623939    1.68166663030553
H          -0.69519766593495   -0.43358876098343    1.96109372701327
H           0.72524085060269    1.05428063948624    1.58288531035033
N           1.49689104482105    1.40716130994744    0.94373883835846
H           1.95412134556664    0.56924124570290    0.48011323385089
H           2.17924840819541    1.96203776508390    1.44706546978907
H           1.02223997965125    1.95909990179141    0.16672179665332
