    26
        -50.45369321  Gyration_radius:  2.60979635249 Dipole_moment: 5.087
 S          -0.60034612326659   -0.80227884318432    1.06135687123341
O          -0.89903734719799   -0.69339598862055   -0.44629516257211
O          -1.30207146721609    0.20408641904364    1.78743594294181
O           0.84320722486802   -0.77144736917414    1.22626741377771
O          -1.12217098093657   -2.19038315626809    1.41096988934546
H          -0.39107271422617   -2.83317337977817    1.07969518036158
H           1.43593598607998    0.76542881252177    1.11935535654625
O           1.70636708378923    1.68361412404219    0.88843034503788
H           2.64762712600444    1.74267617199421    1.06119348978543
O          -1.53269502181220    3.26336634741082   -0.81230805233226
H          -1.39041518786375    4.18367911238429   -1.03813115782034
O           0.88216400899038   -3.39471532598994    0.48729908811145
H           0.72984189422389   -3.33847680197140   -0.49498842567014
H           1.39093328539028   -2.60811828791941    0.72734479468374
O          -0.73457627142801    2.86420013215613    1.68249085945752
H          -1.36935837511276    3.18581076720936    0.16093296033461
H          -1.11795519545625    1.99482505381552    1.88516679912564
H           0.20842301962091    2.69076116651422    1.55428473679736
O           0.18969972537461    1.35327546915990   -1.35883655825014
H          -0.46153692009117    0.17554545568302   -0.86637270787551
H          -0.50500163792981    2.06015000657116   -1.29837225044052
H           0.84545642261841    1.57767738317558   -0.67149546375906
N           0.25465221854300   -2.89093368359269   -2.06886644619269
H          -0.33955125827302   -2.11098820253606   -1.80121723896182
H          -0.31748986286954   -3.56794223151155   -2.55723559694793
H           0.94897038522594   -2.54324316543789   -2.71810465357535
