    26
        -50.45452911  Gyration_radius:  2.51061139774 Dipole_moment: 5.105
 S          -0.82655138638416   -0.33462309927937   -1.41712664430636
O          -1.13650308583998    0.93213572816729   -1.99484350732249
O          -1.28066018647527   -0.39612747160847    0.05600828646057
O           0.58377497937866   -0.67367177832472   -1.46784076984770
O          -1.65974216441184   -1.43109271289562   -2.06266299307201
H          -1.67298553492103   -2.22405917979641   -1.40754263146286
H           1.59369782581351    0.53998363133250   -0.99659031060298
O           2.09974120039236    1.24332346746356   -0.52850914002197
H           2.99129747457585    1.22036539682192   -0.87987455919930
O          -0.63082629004358    2.82378429503048    1.90356571471851
H          -0.28475171305034    3.59657670789957    2.35180612268221
O          -1.65521053667359   -3.20452903673721   -0.26261656559061
H          -0.73411718694500   -3.08677324677695    0.12469477735494
H          -2.25943392431772   -2.81378545730879    0.37389699533647
O           0.51780261989865    0.47286671908521    1.59635016835018
H          -0.55636084948614   -0.05414911424761    0.71178469811042
H           1.22543876400976    0.76314603987706    0.99449395117633
H           0.07637560010454    1.30685446291664    1.89404562571166
O          -0.04750086861906    3.04988183809080   -0.67743463226165
H           0.83684623874882    2.65587171018687   -0.68423257740918
H          -0.58739146849792    2.45918316528108   -1.22912052739366
H          -0.54424735327773    3.00303440271231    0.93560817146024
N           0.75075025348970   -2.59114006823296    0.63601655953680
H           1.50125450378235   -3.26309692279202    0.72951926327744
H           0.74610707542443   -2.00360541814860    1.46153645696772
H           0.95319599340632   -1.99035406878389   -0.16093194267819
