    26
        -50.45462884  Gyration_radius:  2.5232792328 Dipole_moment: 3.144
 S           0.58358595919107    2.36643261716390    0.79198532061005
O           1.04550412503795    2.00009489359459   -0.52914945509406
O           1.01572587985031    1.40720859345612    1.80925706930319
O          -0.84472299463076    2.60503161587009    0.86912153666462
O           1.28916510518276    3.73246343427981    1.15452243818327
H           0.88016225661193    3.92628710174888    1.99070904120411
H          -1.62235811538940    1.22175414086664    0.84171590857763
O           1.92295889199729   -0.40498798721430   -1.25952482684952
H           1.97154346393703    0.55865803839977   -1.11084251583353
O          -2.09861728824141    0.35554309497380    0.73458718173648
H          -2.98049593907037    0.49694839076223    1.08246646407359
O          -0.68936099732997   -1.93215192987195    1.08121230347623
H          -0.71779610732790   -2.30379324276319    0.15648021915118
H          -1.25701927694394   -1.13595909490224    1.06444976818072
O           1.58878528818760   -0.94455729507435    1.20072126523062
H           1.40867512267633    0.02253256454755    1.52702032949098
H           0.62764926239717   -1.42921425890167    1.22520413309655
H           1.82360216723520   -0.83523148432428    0.20307744700918
O          -0.73337366339748    0.27784492374221   -1.68677898671032
H          -0.21941156742978    1.07393009061373   -1.46769612910543
H           1.03224624649575   -0.51284614414006   -1.63396879903504
H          -1.41022354901101    0.23625367140444   -0.99510543841904
N          -0.65698190879414   -2.67367199169263   -1.49215084442542
H          -1.37257920505839   -3.31522522306812   -1.80809270493576
H           0.23759184604667   -3.01985748438274   -1.81607854699078
H          -0.82425503222006   -1.77348705508948   -1.93314218858759
