    26
        -50.45462896  Gyration_radius:  2.52323198477 Dipole_moment: 3.145
 S           2.41365727483721   -0.08739075504015    0.85605897810252
O           1.68455369416112    0.93952139477629    1.60134928117870
O           2.24473701128908    0.05785188173864   -0.57344856549328
O           2.10412065765391   -1.41453152075896    1.35176085955981
O           3.94436347352728    0.16084953397792    1.15716357376012
H           3.97338268171566   -0.02204402253596    2.08975450814705
H           0.53079025154587   -1.62028035499283    1.38809939307496
O           0.33927103912621    1.47204771690174   -1.78047695567715
H           1.25167296591403    1.21670929026470   -1.54513297541476
O          -0.45049310583822   -1.76638725965174    1.32233276712571
H          -0.64715894221590   -2.49308507838188    1.91552644350033
O          -2.04882596604646    0.39855932288005    1.00914727048064
H          -2.40500551238920    0.22935524415327    0.09338311144164
H          -1.52099361895320   -0.39220741907701    1.23845238853105
O          -0.01600909745393   -1.25177096398603   -1.37598398072432
H          -0.09266063113588    0.60981505178969   -1.90327508140088
H           0.91400913951403   -1.01313084750898   -1.22099036372051
H          -0.30599557070378   -1.63076264323722   -0.53310038007688
O          -0.28471887969988    2.10162847278449    0.60098099196399
H          -1.09226292605862    1.42941857985065    0.83709978780854
H           0.54595254501600    1.69576659362412    1.06943519085146
H          -0.09646167538472    1.97328234393150   -0.40406147069513
N          -2.72704392393266   -0.07784367727933   -1.53744235042856
H          -2.71751247876715    0.74061330589520   -2.13322352800464
H          -3.58818360998583   -0.57964810858323   -1.71070775956739
H          -1.95318479573395   -0.67633608153292   -1.81270111432015
