    26
        -50.45462894  Gyration_radius:  2.52307365301 Dipole_moment: 3.145
 S          -0.86823534317037    2.12010342052882   -1.14692793028163
O           0.08778319275478    2.31511290275775   -0.07879926542025
O          -2.01068974315736    1.31172139070734   -0.71923356022181
O          -0.28547822105214    1.59973125166200   -2.36860219317292
O          -1.45092587439278    3.54611444007098   -1.49718019928601
H          -2.00378349878584    3.33393844175550   -2.24106796711899
H           0.02646307269677    0.05288509168018   -2.19778829956153
O           0.24816297317436    0.87127860556094    2.15254035820194
H           0.13382158429176    1.67861391151426    1.61567063347924
O           0.29756223748760   -0.89172341260632   -2.04682274885288
H           0.38560006733223   -1.28123072051354   -2.91811962717345
O          -0.73931349811297   -2.19536668171403    0.08971362542605
H          -0.43666141950298   -1.80102143943008   -0.75255925698163
H           0.08397521686799   -2.33111498468551    0.63547277413367
O          -1.82335497304981   -0.25962799676829    1.21076103937045
H          -1.99310530835480    0.39881482779911    0.42844529899076
H          -1.43558941163088   -1.14945702158426    0.74444333463242
H          -1.03274863638207    0.15591132649658    1.72489637317200
O           1.84553334937000    0.22301871793057   -0.02272219011234
H           0.97598315061975    0.41806327265432    1.69418208302694
H           1.53016378592933   -0.29097699814227   -0.78070511454378
H           1.45239522819382    1.10303667038102   -0.15299409830930
N           1.51407182790656   -2.27112022662553    1.53520247986861
H           1.38818364752168   -2.05330550716909    2.51584435601609
H           2.02095161871655   -1.50253577817456    1.10501870242913
H           2.08923498472833   -3.10086352408422    1.47133139229093
