    26
        -50.45462896  Gyration_radius:  2.52307898824 Dipole_moment: 3.143
 S          -0.92989692297661   -2.33182412703305    0.51256581641449
O           0.39120680745111   -2.47341041848779   -0.10074791480983
O          -1.78947161341453   -1.45200707153802   -0.24895684760996
O          -0.82208297778004   -1.97801101751741    1.91475970037278
O          -1.59039143100373   -3.76576668430909    0.45898228347031
H          -1.00866384628463   -4.25044254432485    1.03406544314134
H           0.12006544547814   -0.71119322208234    2.07708488884140
O          -0.98971269646440    0.29280559201957   -2.09439649852122
H          -1.47722739386192   -0.47557330146213   -1.74106951957311
O           0.63888688595472    0.13337220914984    2.15552546310324
H           0.94318912060037    0.17022611662469    3.06366154236740
O           2.12579355464291    0.92535064076121    0.03379515176599
H           1.69914940848202    0.61632864737737    0.85779050483636
H           1.64353509097726    1.75905521840271   -0.22392889827012
O          -1.37556028216214    1.13695795410834    0.52171754388339
H          -1.09006698020058    0.94772800310089   -1.38295519517866
H          -1.76834185108933    0.25582902500895    0.39824234157181
H          -0.72158321016831    1.00746646028222    1.22438470345019
O           1.29386963360001   -0.72140762103522   -1.63209609288309
H           0.97362378375116   -1.51076055030666   -1.04164412798910
H           0.42201405109961   -0.27482603750946   -1.95236405152092
H           1.74490923301244   -0.02610774882166   -0.94452108543136
N           0.58774772145348    3.00159888287202   -0.67078385739966
H           0.42791520954021    3.08411142034038   -1.66708664670911
H           0.83794071268452    3.91625160966136   -0.31824827973358
H          -0.28684745332301    2.72424855471905   -0.23377632759119
