    26
        -50.45462901  Gyration_radius:  2.52329150277 Dipole_moment: 3.146
 S          -1.91352480462019   -1.08804909544984    1.31201132542550
O          -2.48124139490975   -0.27294913207083    0.23735300941544
O          -0.93712747510957   -0.35619328613140    2.08923778526392
O          -1.42911091585078   -2.35824677557338    0.80712669873105
O          -3.11153938299670   -1.41794692449219    2.28729084036069
H          -3.65885555178868   -1.95119696087603    1.72149969545240
H          -0.45012365103484   -2.11116220789914   -0.41739841932010
O           0.22761837280781   -1.93819481334617   -1.12405484450378
H           0.29549530734174   -2.75169788021898   -1.62628372869419
O           0.28131426963050    1.88999649915719    1.34223596060055
H          -0.27685022115894    1.31803973732545    1.90291618818648
O           0.31676097209138    0.53143497417722   -2.23424602346781
H           1.21015995253948    0.84009512780025   -1.91705853788961
H           0.24009951767012   -0.39973336507600   -1.94520655748030
O           1.52176318489194   -0.55659919554678    0.91331331248693
H           0.77013858653575   -0.66901046087969    1.52022138744398
H           1.31072330371365   -1.13621571672735    0.16651914213962
H           1.02411283084265    1.30316906244017    1.12110737917137
O          -1.24180246296094    1.68888494801026   -0.68173434771697
H          -0.61249401438263    1.23399031575989   -1.42784394179024
H          -1.83581759599583    0.91723491094954   -0.32695302910208
H          -0.62160517598707    1.91528673605987    0.10959877954202
N           2.62477790955770    1.29690943742782   -1.11179787556740
H           3.47487741280351    1.16593479952786   -1.64434591270296
H           2.64924244884908    0.66195920197303   -0.31864685675474
H           2.62300857752017    2.24426006367835   -0.75486141922649
