    26
        -50.45462883  Gyration_radius:  2.52316284965 Dipole_moment: 3.144
 S           2.21455853570643    0.30951462466414    1.25123953024419
O           1.59164166971372   -0.93867809856030    1.69353978090123
O           1.29120188140594    1.42229548672769    1.29771739919509
O           2.86895988997239    0.14309985610554   -0.03206146143360
O           3.35268217518650    0.62314275386206    2.30079909309079
H           3.93641421648428   -0.11295854889810    2.15437877515896
H           1.85422126894820   -0.49223273221665   -1.07373890227359
O          -1.36107784743226    1.23920653137188    1.43669213783511
H          -0.46493655358673    1.49692950153515    1.72581668356443
O           1.18402889958569   -0.80721225089674   -1.73732697681308
H           1.68848611085667   -1.18571353017552   -2.45906493902450
O          -1.14131001783772   -1.84683451018571   -0.81416388914678
H          -1.78773862444793   -1.16143122380441   -1.14057878581664
H          -0.27323830908329   -1.58950606655797   -1.18387962116844
O          -0.88221491023912   -1.25186097054859    1.58538390614930
H          -1.20273109085526   -0.27247273617153    1.59551787130473
H          -1.02594756210790   -1.59789108691262    0.57576120294301
H           0.14554736592758   -1.18447916824687    1.70067080761939
O          -0.13029813857830    1.54054220799010   -1.03366302363455
H          -1.32986109422923    1.41527675138454    0.48116613740214
H           0.50553740285903    1.72984325369440   -0.32246373432108
H           0.27198050360203    0.80612002517253   -1.52050557094935
N          -2.71169536661944    0.19231706522647   -1.55416871218926
H          -2.01577996676853    0.92992373703030   -1.62060709208156
H          -3.39504439201384    0.46777540431672   -0.85985777701891
H          -3.18338602644501    0.12528374408962   -2.44660281953568
