    26
        -50.45462895  Gyration_radius:  2.52322772947 Dipole_moment: 3.144
 S          -1.78177478914606   -1.74479252187190   -0.58984757069327
O          -1.17538606305635   -1.86391223643099    0.71825962847227
O          -0.78087256586726   -1.71151430084484   -1.65692738237685
O          -2.71101788071176   -0.63771573779510   -0.70740399088583
O          -2.62031455875689   -3.06357755789075   -0.82044881479523
H          -3.03235744317770   -2.86749730855173   -1.65459952975262
H          -1.90807040307561    0.72713488316994   -0.81461487920956
O           1.37355945582270   -1.36490815511157    1.30356595086253
H           0.56047288581876   -1.89995956654689    1.22892305892989
O          -1.39604076935835    1.57914044340462   -0.79184511991371
H          -1.97724076091373    2.24380708097405   -1.16485264348830
O           1.27253437691110    1.48306176372845   -1.24878856795100
H           0.30034533727130    1.57562184687097   -1.19635275612548
H           1.61891272373027    1.76059092768409   -0.35599569093723
O           1.56329300394281   -0.98527072491105   -1.20161344864642
H           1.49600062512111    0.08476856477372   -1.30115632541142
H           1.63078224376311   -1.17009767531699   -0.18985830947849
H           0.62409381244463   -1.33743724271718   -1.46238296431368
O          -0.53583827645126    0.61621809883011    1.67123322561089
H          -0.97279296505606   -0.24159252134951    1.53277403738115
H           1.03376174549333   -0.51532970306014    1.63214921585675
H          -0.87124069381099    1.17080684908147    0.95139681238710
N           2.04018338958476    2.01262002506012    1.26182680334394
H           2.24711197409697    2.97382138841070    1.50011292520260
H           2.80349103268285    1.43723704083208    1.59540975202552
H           1.19840454269337    1.73877633958179    1.76103658390332
