    26
        -50.45462888  Gyration_radius:  2.52315242088 Dipole_moment: 3.142
 S          -0.64085430746980   -1.74349805571028   -1.76498232801484
O          -0.62446442937229   -0.36443541035587   -2.20188032839154
O          -1.48352699355593   -1.93431627213768   -0.58379036159897
O           0.67831773115130   -2.31175894265973   -1.56559940064283
O          -1.32012711230977   -2.57595738249851   -2.92310391935597
H          -1.22455686245161   -3.45958627500036   -2.58531733181439
H           1.30199223749090   -1.75895041356410   -0.21494034361253
O          -1.36561040519571    1.73950588632911   -0.74827094221100
H          -1.38943279308447    1.11944804962376   -1.50191449767719
O           1.71487800014591   -1.33781093815345    0.58559284909177
H           2.41925634184264   -1.92808097634348    0.85775775841039
O           0.09909414662311   -0.02052291019382    2.31592724362488
H           0.42936059710260    0.91266652594588    2.19705264645718
H           0.69568049122897   -0.58263196933107    1.78242836079787
O           1.31080687276055    1.01089896697459   -0.84774168553472
H           1.68846752263527    0.29811398528264   -0.31152777285419
H           0.81645268662123    0.54661919706991   -1.54485103938934
H          -0.41106435598821    1.85948950198074   -0.60812667043449
O          -1.98390968450735   -0.03761258145438    0.95942798779535
H          -1.83420996349489    0.76751336308751    0.33371805209421
H          -1.85744169882605   -0.86374351564663    0.34636809472153
H          -1.13735235954978   -0.05415387656435    1.62465510973803
N           0.93692132173598    2.45022606450748    1.71041621718216
H           0.19412795263490    3.13211775046348    1.61952572238982
H           1.32236158955432    2.27987777753821    0.78567522274686
H           1.66483348427362    2.85658245081164    2.28350135647996
