    26
        -50.45462900  Gyration_radius:  2.52305336237 Dipole_moment: 3.143
 S           2.03672551317488   -0.62555381236914    1.42302750358570
O           2.49998795146026   -0.08738542644579    0.14345369939503
O           1.03676518908732   -1.65611048652528    1.24725177842245
O           1.63267337713982    0.43695306702255    2.32346848852767
O           3.29188894930936   -1.32203031820069    2.08259409104357
H           3.85570284384202   -0.57038099568031    2.22806312515024
H           0.59664553070010    1.39262594801820    1.59342542117246
O          -0.11648717454060    1.92957499826949    1.15559934281580
H          -0.13922529681755    2.76561448657337    1.62373615182454
O          -0.37973755593768   -2.09163142025870   -0.96529318410063
H           0.24118302930266   -2.30825224207472   -0.24397858390474
O          -0.43699645491484    1.69217923008136   -1.52425660434135
H          -1.33942184777652    1.27001094805108   -1.56175272995967
H          -0.27799597673243    1.89460840490463   -0.58075915648196
O          -1.43914392527156   -0.51505683085742    1.05812870734752
H          -1.21104180632445    0.41846377561850    1.17942832539950
H          -1.08014025645864   -1.60575968424769   -0.49765227908938
H          -0.65981311697522   -0.99436316649003    1.38802590642233
O           1.08240356801025   -0.23803806103675   -1.90516920989131
H           1.74596772910990   -0.17391987124746   -1.11148611938565
H           0.47494654218154   -1.03482167925348   -1.66373655132204
H           0.46375738711290    0.63924984588461   -1.82059852450924
N          -2.75449047592252    0.35186345589964   -1.44687572959926
H          -3.61147417555810    0.88404919052483   -1.52319600887883
H          -2.70293043643225   -0.02843840047618   -0.50587635013715
H          -2.80974911076879   -0.42345097568464   -2.09557149950470
