    26
        -50.45462899  Gyration_radius:  2.52317763068 Dipole_moment: 3.145
 S           0.90588607440841   -2.08073180927565    1.18956827846290
O           2.03309295111742   -1.29725707235137    0.68222646528071
O          -0.09689252767182   -2.30935993360108    0.17210275668298
O           0.37969276757045   -1.51019630352867    2.41452743618754
O           1.49564229673996   -3.49637583781178    1.56855990724236
H           2.08072241614571   -3.25992179179994    2.27977188929555
H           0.06708433417245    0.03076415324592    2.19763737662231
O          -0.20595177671494    0.97058623031866    2.02215576214881
H          -0.25473588721748    1.39365311233826    2.88080919433817
O          -0.34371137432205   -0.95135221433267   -2.10481642404958
H          -0.21098559995116   -1.73766690936480   -1.54168922489444
O           0.74565285578394    2.18546791512659   -0.20480437537907
H           0.47714998167161    1.82542105733065    0.66394184040266
H          -0.09926083233733    2.30579301314975   -0.72022211036187
O           1.77154313423762    0.20160229547535   -1.29615918486078
H           0.95775164600182   -0.22812786206453   -1.75987882380598
H           1.40829219464599    1.11096925273215   -0.84813934868915
H           1.97120667378985   -0.42793200412933   -0.49725091303821
O          -1.84450101857864   -0.20912259206256    0.10946352598416
H          -1.49438727215203    0.33127155876066    0.83304691801652
H          -1.04951316444767   -0.47588276014548   -1.63478844101148
H          -1.45073332789942   -1.08618182369528    0.25669280010964
N          -1.56646049680704    2.22084643371487   -1.55600129661671
H          -2.05796697172047    1.47217435769452   -1.07567288664187
H          -1.48399992291909    1.96564175102378   -2.53221148116903
H          -2.13461714354865    3.05591777324954   -1.49886965025848
