    26
        -50.47229283  Gyration_radius:  2.48063705018 Dipole_moment: 2.001
 S          -2.12412375114874    0.22758964066801   -0.79418887110648
O          -1.63735222874581    0.11477458513694    0.57739919862339
O          -1.65854797273514   -0.86828139288713   -1.61925247241445
O          -1.86127437190795    1.53958708229465   -1.35323996192988
O          -3.70223609467169    0.09725893376915   -0.72746869051208
H          -3.95346150181789    0.98857441638959   -0.50980806084124
H          -0.27465652682238    1.68012357889885   -1.50935164693054
O           1.91154614025979    0.11727705431412    1.94825562345657
H           2.46048441851999    0.42264086869196    2.67067265360671
O           0.71050836090791    1.79100816102722   -1.52190661265808
H           0.90984002338467    2.27547056120830   -2.32454785964952
O           2.26126055224704   -0.32913890603582   -0.74583804472416
H           2.33421510794999   -0.17848427795997    0.21393094011663
H           1.77283667007755    0.44161774261293   -1.09220653603365
O           0.18983993036377    1.93577961171778    1.22776461797626
H          -0.58121874075584    1.35382403939432    1.06257783233137
H           1.27147896388986    0.85898973423183    1.74517978415574
H           0.48160716815979    2.20749074012867    0.34670849817516
O          -0.15365884416127   -1.71464095153060    1.87984893426382
H          -0.84256512033898   -1.08484979296377    1.59214165311965
H           0.18888067316878   -2.19187925734318    0.40087449889401
H           0.61624730622203   -1.15880678203697    2.09766908346468
N           0.38271603060508   -2.17597265252922   -0.64643666191500
H           1.21272114045753   -1.52899597583607   -0.79626747307798
H          -0.46026037768340   -1.71980598537098   -1.09650852010506
H           0.54517303457294   -3.10115077599500   -1.02600191628100
