    26
        -50.44833791  Gyration_radius:  2.53176864463 Dipole_moment: 7.402
 S           1.02479640718311   -0.81025745046983   -0.72211494077077
O          -0.42106326376453   -1.16231957772160   -0.31775244519730
O           1.80226777092516   -0.46221270351297    0.42129059640968
O           0.95598004720735    0.21960891509931   -1.74126547121081
O           1.52048353603243   -2.11475155459011   -1.33867755970215
H           0.91167892901027   -2.22934629537304   -2.16114653828658
H           0.70758343775377    1.70353902376373   -1.04309217955289
O           0.39820525695839    2.50065952118153   -0.55535761294169
H           0.44786675539507    3.23465839697556   -1.17043670369145
O          -0.95128161888467    0.89066720442877    2.86662855205302
H          -1.18962895754611    1.28640923262467    3.70545084044220
O          -1.02225853143770   -1.95881198107627    2.46120945777227
H          -1.00511037361534   -1.03107795467013    2.72955472044368
H          -0.76944100543474   -1.96773761470834    1.53426226835741
O           1.37854753989147    1.72408895833976    1.97321748444500
H           1.14182292813381    2.25666693725869    1.20099889501303
H          -0.03186755013754    1.19909571579503    2.65098070395564
H           1.73063611493242    0.89829132491639    1.60097559527388
O          -1.65662545256483    0.92483328512767    0.29883318374351
H          -1.59696055693548    0.91005738165567    1.27977431315689
H          -1.05385418617606    1.63566719873524    0.00807904164845
H          -0.98966762679655   -0.30827071174483   -0.07447596334303
N          -0.15559985423204   -1.94419144080460   -3.25516701386134
H          -0.04499327051772   -2.27038167336954   -4.20597429408901
H          -0.05305303845909   -0.93494299700533   -3.22358589312127
H          -1.07846343687988   -2.18994115084546   -2.92220904710811
