    26
        -50.45234078  Gyration_radius:  2.45880054771 Dipole_moment: 5.678
 S           0.63075026861366    0.22167643812413    2.07695675680242
O          -0.50998675773924    0.88919863020001    1.46872240300262
O           1.21575905211186    0.89556889868229    3.17608464446693
O           0.23026791546298   -1.19913876115292    2.46058199043914
O           1.68919314053675    0.02983978424333    0.95430891422645
O          -1.71793404223685   -0.46262657657833   -1.44091627287473
H          -2.34978202878342   -0.79353873497415   -2.08035190170605
O          -0.06737339886748    2.94606743141893   -0.12632104339787
H          -0.23377547001767    2.27354104266782    0.57027658430198
H           0.52923126320211    3.58961084131315    0.25781450429547
O          -2.71422223989729    1.47196984490723    0.03497190034462
H          -2.34299848622001    2.30048356008849   -0.28557221416441
H          -2.18231074530033    0.23953298423719   -0.91292336406932
H          -2.15315698348119    1.22150949293981    0.78757082016889
O           0.76410013129107    0.66828279723950   -1.34892948952266
H          -0.08774764795432    0.21201394602975   -1.48137161378462
H           0.53024347116654    1.59619784979781   -1.15300124639227
H           1.31832007522719    0.24903196799895    0.03363399843375
O          -0.46619115454912   -2.21666993162982    0.26790804450986
H           0.39403535428032   -2.32243983175317   -0.21520170626402
H          -0.11048418302143   -1.65572444634525    1.60262308705013
H          -1.00029133322995   -1.60858769623911   -0.27448083504097
N           1.91166024189870   -2.20408616179831   -1.00362169731690
H           2.50317240769906   -1.88036104114001   -0.24719545537275
H           1.86550345945722   -1.45637557985921   -1.68587112164462
H           2.35401771034912   -3.00497676842012   -1.43569568649499
