    26
        -50.47229266  Gyration_radius:  2.48080192809 Dipole_moment: 2.003
 S          -1.89201986937019    1.21656567734743   -0.36858303274327
O          -1.73305240851016   -0.18296938590943    0.01442557859998
O          -1.14732210883700    1.53063352250019   -1.57083865572823
O          -1.62584803481158    2.11249390144385    0.74031138202067
O          -3.42280488972748    1.41838316396754   -0.72588712877543
H          -3.79743680434849    1.56443061663543    0.13618888159952
H          -0.06699188403855    1.99769220984921    1.08371588341834
O           0.87870277742782    1.85568811087136    1.34556564156192
H           1.21335665566774    2.71762685340541    1.59804086341741
O           1.38262102179808   -2.13130828825632    1.00306882053048
H           1.71818648040825   -2.80380575121411    1.59604116451743
O           2.39468885362257    0.14646012732411   -0.16522464638960
H           1.93218169429076    0.81338259753380    0.37683849669145
H           2.22558586644494   -0.70615475647859    0.27493274020402
O          -0.28507452188056   -0.53957470519635    2.21770679415463
H          -0.93903356634717   -0.42922184076084    1.49616209758421
H           0.74125116406761   -1.57802403163143    1.53562006580879
H           0.17857494126590    0.30825929143863    2.25645507634072
O          -0.42935442056270   -2.26993557043205   -1.07653758166278
H           0.21260474953213   -2.43818837983247   -0.36334578935228
H          -1.08763284362032   -1.66556524871779   -0.68228432835607
H           0.29345955143861   -1.12402236397294   -1.91133371484490
N           0.72464591652516   -0.18706699522613   -2.17753545223985
H           1.50289470551242    0.00338871743012   -1.47899785047932
H          -0.02869478960201    0.54023678194547   -2.01990998231971
H           1.05651175363699   -0.16940423408660   -3.13459532355841
