    26
        -50.45054791  Gyration_radius:  2.51991217952 Dipole_moment: 7.521
 S           0.28761827410308   -0.86626305229501   -1.04868937024070
O          -0.88620946916492   -1.19037574523457   -0.11645625160394
O           1.47780066638728   -0.57432209042668   -0.30999873787414
O          -0.13150136897643    0.20057721910574   -1.93720694486723
O           0.45871169744422   -2.15595635827282   -1.84342179842778
H          -0.43752517144986   -2.24915965765322   -2.34223560855034
H          -0.09266232332372    1.65809881261743   -1.15086903746949
O          -0.14696592282059    2.44156050073529   -0.55721137254897
H          -0.47223348695077    3.16820292543939   -1.09173919834885
O           0.72055081411405    0.89961856354882    3.04954317168583
H           0.92746186869649    1.35232818984146    3.86756382066839
O           1.21975807270300   -1.82020081869243    2.22251290071636
H           1.43593114480434   -1.54796881219056    1.32389143609994
H           1.02045383833554   -1.00485820973336    2.69874768087767
O           2.10428002074953    1.76303325665500    0.97247051319075
H           1.34001021767693    1.25047801227770    2.35875642065209
H           2.17124364908210    0.90805752100172    0.51856669547062
H           1.44573874477391    2.25802929779539    0.46427881434081
O          -1.32309578361729    0.82377719683067    1.31959735572865
H          -1.10741333523790   -0.40469896659828    0.53351254518488
H          -0.69353690836413    0.78254646438247    2.07180866852169
H          -1.00207479824033    1.54357601531792    0.74584423670135
N          -1.85785748896197   -1.92299389102961   -2.88528096376453
H          -1.72869401846880   -0.91714533417714   -2.91059369783523
H          -2.53834773601620   -2.14620632801026   -2.17101628274984
H          -2.19144118721058   -2.24973474117577   -3.78237500554280
