    26
        -50.47229307  Gyration_radius:  2.480451384 Dipole_moment: 1.995
 S          -1.02663145364007    0.56040631979984   -1.95604074588561
O          -1.32546957438627    0.96569195201936   -0.58581901671837
O          -0.98352364122168   -0.88128337258952   -2.09076916340473
O           0.14712013359109    1.23613330514451   -2.47414243800318
O          -2.23844461524467    1.05570846329799   -2.84923734139302
H          -2.00064599285171    1.96446089595825   -2.99948731494777
H           1.40662400334991    0.69533254458113   -1.64745950518815
O           2.16691852636754    0.42060712970235   -1.07355483096596
H           2.92232128287284    0.34268509252218   -1.65836576460999
O           0.59439035700438    0.35546248675525    2.64205301298034
H           0.85461997453263    0.75284550590495    3.47321098131902
O           1.71019797515317   -1.44302752614883    0.88171683798102
H           1.95635488388272   -0.82451879984527    0.16803498106130
H           1.44635945018641   -0.87998498979879    1.63178657379305
O           0.73585912687765    2.06865350210629    0.68377249125918
H           0.65770662529076    1.07614576487299    1.95089014982364
H           1.46546049360647    1.74780324370347    0.13605882656706
H          -0.07205058577205    1.80464793855938    0.19583904017423
O          -1.88289371188585   -0.38736258810875    1.67317083100357
H          -1.88275049426857    0.22092395582721    0.90896014981103
H          -1.29819787612574   -1.61333424508258    0.84340976094021
H          -1.11350381883670   -0.11723060478041    2.20623013982386
N          -0.71440362865483   -2.18241867244065    0.15797857704805
H          -0.85370042169188   -1.73513553896183   -0.79171507693172
H          -0.97540598525700   -3.16123651444025    0.14394216027853
H           0.30368896711800   -2.04197524856578    0.42953667418399
