    26
        -50.47229305  Gyration_radius:  2.48039797477 Dipole_moment: 1.995
 S           1.26870366884103    1.24841530749139    1.42302644458646
O          -0.03795022247355    0.62940559263837    1.62408056007884
O           1.28398571272188    2.09787649855993    0.24966524791010
O           2.33928250932798    0.27090191793380    1.45696564296486
O           1.51515757611041    2.20035311957902    2.66589776196904
H           1.84075310681082    1.58315633706821    3.31244755742807
H           2.17132106622408   -0.65803516713187    0.16416813162135
O           2.00886781778331   -1.28080677688139   -0.58987737060315
H           2.87398102152369   -1.50472138112827   -0.93643906625629
O          -1.99697932459946   -1.76836717247444   -0.58714618527559
H          -2.56627583443102   -2.53795613432091   -0.57700210126968
O          -0.07943517244818   -0.75492518476553   -2.28259860741148
H           0.71527167161836   -0.96739724891167   -1.75736376543754
H          -0.81308962051027   -1.21859594984393   -1.83992441743191
O          -0.06954268272340   -1.98865572775666    1.15254523819023
H          -1.30029466246784   -1.92158080918718    0.11447576087398
H           0.73022353582498   -2.07596580768203    0.61597318157731
H          -0.05085695947635   -1.06257920410262    1.47273308248166
O          -2.39515412830945    0.80343644200214    0.33660302625391
H          -1.49531174398648    1.45552244209101   -0.80262508624393
H          -2.47086267367092   -0.11904387388226    0.03254450072558
H          -1.67487921976481    0.79022056292102    0.99618621112363
N          -0.66589937665374    1.67141091604715   -1.43515419032606
H          -0.40594552303222    0.76352696977795   -1.92314551093158
H           0.13663457004118    1.92744152624918   -0.79346279546120
H          -0.86170510227862    2.41696279571423   -2.09257327113727
