    26
        -50.47229302  Gyration_radius:  2.4802797304 Dipole_moment: 1.994
 S          -0.42969363735668   -1.90651551223007    1.17189094637918
O          -0.38676772100585   -2.43441064659038   -0.17643595530515
O          -1.08507455665338   -0.60308209786397    1.22042360250055
O           0.85777116693972   -1.88785942322039    1.83882794801387
O          -1.33521714563911   -2.90031780764263    2.01111751667632
H          -1.04113776166145   -2.71810320531790    2.89726933433472
H           1.82392494783620   -0.95751169342407    0.96527912212310
O           2.38789770548101   -0.31217556087615    0.46694826518534
H           3.27275175659484   -0.68060931288018    0.46906088659537
O          -0.15108991801653    2.69253961358691   -0.43464543805641
H          -0.12218629497459    3.64064118732783   -0.30525544993558
O           1.36119668184028    0.83902784952022   -1.79700955253578
H           1.81047770239443    0.42176516010553   -1.03771343700753
H           0.91494568377798    1.62492208970718   -1.43310011022610
O           0.57251796287968    1.41689936468571    1.71906577683740
H          -0.07557397358112    0.68259520866426    1.68222835181292
H           1.41636441819448    1.00709671815325    1.48408419234496
H           0.12036554529514    2.27914259430068    0.43520192126618
O          -2.28130801380805    0.94609675166348   -0.62710018754676
H          -1.68251324399486    1.71385169168797   -0.59249800503377
H          -1.52231155867429   -0.02150257684173   -1.63710379167969
H          -2.05386850542723    0.41679034797136    0.16164515995206
N          -0.78664950569725   -0.66695035292446   -2.05765292159808
H           0.11958325067905   -0.11318316673480   -2.10271896434951
H          -1.05920242857370   -1.02971998848269   -2.96346654668001
H          -0.64520256684022   -1.44942724234388   -1.35834263407017
