    26
        -50.47229296  Gyration_radius:  2.48025501513 Dipole_moment: 1.996
 S           0.86835895868657    1.89962400453643   -0.91077517853225
O          -0.16955487435644    2.46398719501241   -0.07245486178055
O           0.43183156878620    0.66220139094714   -1.55039205172232
O           2.14467708253647    1.73965806480884   -0.24139336366784
O           1.12037877511530    2.94633524513431   -2.07393548472281
H           1.99987103115286    2.71113021330715   -2.34970441500360
H           1.90289149285258    0.75151089510855    0.99465620243041
O          -0.65667543978605   -2.65150866913674   -0.03197734501715
H          -0.60962810397431   -3.60194360299095   -0.13654464066800
O           1.76306569552760    0.07286363002752    1.70362754253694
H           2.29535882581331    0.35754099618141    2.44813636516195
O          -0.76634474520205   -0.90461232962077    2.09263729846887
H           0.14408166520390   -0.55560981181719    2.04958103205816
H          -0.78424852196510   -1.65658730109970    1.47340235485758
O           1.62066267714655   -1.51896367769804   -0.59845792547202
H           1.94015901178630   -1.18264621503721    0.25007408105379
H           0.24308941360486   -2.29353276549731   -0.28382898774665
H           1.28109385049963   -0.72650060581776   -1.06450757187902
O          -1.88453871999694   -0.70820661818557   -1.56245173038382
H          -1.06688974854457   -0.22798926462297   -1.79672273279479
H          -1.57740979160290   -1.52936286534401   -1.13756897369657
H          -2.20399634958532    0.21611481166555   -0.30685014240821
N          -2.07931704067980    0.80306469409952    0.57320922439508
H          -1.64587439181981    0.16872258605199    1.30785897429504
H          -2.94734466093277    1.21856165204371    0.88990575876376
H          -1.36369769026102    1.54614834794002    0.33447656146970
