    26
        -50.44005979  Gyration_radius:  2.53921512852 Dipole_moment: 5.049
 S          -0.80807233297146   -1.02422466911235   -1.01006289842692
O          -1.73110693912385   -0.91526500014100    0.12815927719238
O           0.54931905149976   -1.27582069551895   -0.61837365352221
O          -0.95655349975461    0.13655463903449   -1.87924856556419
O          -1.30925788882124   -2.24746614643870   -1.87596538572820
H          -1.97941570386716   -1.85271077199796   -2.42502712624259
H          -0.75195279908103    1.54607456609796   -1.25624207236231
O          -0.72602543016064    2.40344504885927   -0.73472478823982
H          -1.26332912823228    3.02875228387882   -1.22442365713993
O           0.88079521950516    1.04464723858570    2.41173396071730
H           1.05540153933949    1.57987275123233    3.18792537687729
O           2.70552447859512    0.17496068812671   -1.13114669690278
H           3.42526784391830   -0.36443386140340   -0.79858071226644
H           1.89719976258344   -0.36921220583952   -1.02489907017922
O           1.87847419271690    2.22332190031492    0.34967906688254
H           2.29974434257810    1.53283429175485   -0.21296333127273
H           1.09116020831647    2.49556721487411   -0.14068241525928
H           1.37265610387906    1.47411071061050    1.64204785112796
O          -1.41190300157265    1.15981818725542    1.41198266457767
H          -1.59731945420224    0.22235046036145    0.93074556255849
H          -0.49277042090075    1.05431011289011    1.91679165465599
H          -1.21789267139604    1.78267263486473    0.63839935808160
N          -0.67178903197724   -3.63933628027950    0.64707384226745
H           0.12680416896722   -3.06516670793417    0.40175346133325
H          -1.41564056897335   -2.98731464328852    0.86810635603357
H          -0.94931806085336   -4.11834175678497   -0.20205805920580
