    26
        -50.44005920  Gyration_radius:  2.53875043087 Dipole_moment: 5.029
 S          -0.61175184081787   -1.29814905789247   -0.81861546738484
O           0.64358073745206   -1.36607171787780   -0.12685919154710
O          -0.65915694016381   -0.23860140564842   -1.83580866809521
O          -1.76010825837061   -1.18015045175026    0.07129998209087
O          -0.82851718757056   -2.66227529018132   -1.58625207589028
H          -1.77651050096328   -2.71191741462782   -1.65880409536646
H          -1.95840055262425    0.16492091927950    0.82434661270211
O           1.42061380351936    2.34744059117775    0.37115953952858
H           1.70745945455169    3.24868675026560    0.52895591828106
O          -2.06671325208109    1.10497772788093    1.15983883365955
H          -3.00463846405370    1.22286216538391    1.32098214612733
O           1.12202807397539   -1.13777412298464    2.46896412458016
H           2.05576797287763   -1.34248261187683    2.54530027568320
H           0.89510376761068   -1.28899409853259    1.52754581342403
O           0.38265635501797    1.41603140129617    2.53694206839448
H           0.69348771449072    0.48682445283325    2.64046492266413
H           1.11897007211448    1.97511865123082    1.25964472892248
H          -0.55332307711569    1.33984495139757    2.30758334866524
O          -0.73966004764683    2.01463524024747   -0.84943473397196
H           0.21322806759336    2.18750126550358   -0.43258768582161
H          -0.67616303563182    1.07714264677254   -1.36086430094959
H          -1.33872547536227    1.80761871678480   -0.06064119171645
N           1.68013189488187   -1.75541700985384   -2.85638152739483
H           1.26088884830250   -2.66100165203329   -3.03419028473487
H           0.97985377724064   -1.06110766200416   -3.09067912027590
H           1.79989810275356   -1.68966299474962   -1.85190997151277
