    26
        -50.44005927  Gyration_radius:  2.53826743892 Dipole_moment: 5.008
 S          -0.99222033916697   -0.80995169958338   -1.04529418394803
O           0.24940720759611   -1.36645707639542   -0.58905262184921
O          -0.83613115571690    0.48915016260295   -1.71426499202406
O          -2.00235026745879   -0.70882530075036    0.00061480689435
O          -1.61150607203051   -1.79228449785476   -2.11699579133247
H          -2.54324078690702   -1.60594381428064   -2.05707904682630
H          -1.78239689129115    0.35244292031720    1.11492381060546
O           2.01291708159713    1.72693207761044    0.78951082663508
H           2.53843920214215    2.44630838462436    1.14415463907031
O          -1.61339109748595    1.14463500685748    1.70795437982775
H          -2.47243426089099    1.42237134915518    2.03109474634879
O           0.96241905305971   -2.05770753220284    1.86711364002561
H           1.81448368426557   -2.48022926054852    1.74458352551993
H           0.63443940558367   -1.85847990626324    0.96529555559197
O           0.92390152768650    0.45208450972939    2.74509617452637
H           0.98654695691171   -0.51008908345909    2.54203585487508
H           1.68801666502886    1.18460744426311    1.57651941550119
H          -0.01317967956245    0.66607586167139    2.64231368340938
O          -0.24076518227801    2.28882212996294   -0.14479310227294
H          -0.46619372171767    1.56399565499813   -0.89855432820070
H          -0.81467089348740    1.99632138788392    0.63562545104412
H           0.75138584195351    2.10115616431316    0.15841197911537
N           0.94563503618648   -1.13952127708958   -3.44231154086508
H           1.15301333076304   -1.40568736055912   -2.48637980301973
H           0.29500544408662   -1.83189858641163   -3.79564431320342
H           0.43286992112154   -0.26782767859240   -3.37487876543471
