    26
        -50.44005929  Gyration_radius:  2.53938458216 Dipole_moment: 5.042
 S          -0.44326498369698   -1.59060799123353    0.03338410415436
O           0.83513149966942   -1.18005169786481   -0.47282598226044
O          -1.57442283769247   -0.96422561234544   -0.66482161870999
O          -0.58601104109676   -1.40295886925223    1.47182873907975
O          -0.58801782823672   -3.14787795288776   -0.19143718466248
H          -1.20430475978363   -3.40019565535131    0.48893949543540
H          -0.70885077042805    0.05050954999482    2.00812197210374
O           0.24116234383299    2.56731051012055   -1.01554887697246
H           0.18363092835977    3.50677807306750   -1.19865040469727
O          -0.90642213386439    1.00784881309375    2.23712540679929
H          -1.42336144761445    0.98659613693349    3.04450173178606
O           2.82217287706305    0.00159097173235    0.82117373355482
H           3.53096495909768    0.02239908778023    0.17561249360808
H           2.09432945354562   -0.50001960650295    0.39774808757413
O           1.43849737431478    2.23344365348764    1.24056126628870
H           2.05553293793474    1.47192316776060    1.13931600466469
H           0.80544418488463    2.46383239298208   -0.18496446970667
H           0.73033995132966    1.90426259065536    1.81026942358733
O          -1.80768442600339    1.42831744917920   -0.13675049556009
H          -0.99727192156253    1.91375611592438   -0.60493706316805
H          -1.76116242872292    0.40514254259710   -0.44457576255913
H          -1.55943341378745    1.38628449751935    0.84338610177182
N          -0.25562964011997   -2.25907781040692   -2.98782884396167
H           0.48544766006314   -1.83901977506830   -2.43826532183105
H          -0.29402185762646   -3.23451333202890   -2.71471897816260
H          -1.11279466987612   -1.83144723990824   -2.65664356815486
