    26
        -50.45234090  Gyration_radius:  2.45891950209 Dipole_moment: 5.683
 S           0.03082345373148   -0.10987490047862    2.17944177069373
O           1.46970549921346   -0.61255394743802    2.23773804029410
O          -0.01242657944057    1.11805603539686    1.40026953196591
O          -0.71851060522057   -1.19249820219653    1.35255107200166
O          -0.52820457649060   -0.02749561704621    3.47760501107691
O           0.94076493547514    0.89317978110230   -1.88676222406390
H           1.38173782283184    1.11062711835561   -2.70886519645167
O          -2.29697795977572    1.82897871220014    0.28377647782820
H          -1.49078145177254    1.63461633776582    0.81057805562417
H          -3.03271980928781    1.79871942525731    0.89650836954879
O           0.39053427484512    3.02851936839225   -0.45466677711470
H          -0.55189192300581    3.20294562780630   -0.54654682556868
H           0.47203302825377    2.52631721109590    0.37302518673419
H           0.79708903498582    1.74815645722876   -1.40113704277779
O          -1.31554506905224   -0.35624506121524   -0.99538013557669
H          -0.92814912927103   -0.87924306588888    0.40852389941737
H          -1.85585691070713    0.41495271261116   -0.73570595701820
H          -0.51495952598867    0.01908413055399   -1.40724410589579
O           2.06610566908933   -0.94915911581688   -0.18290262571790
H           1.78691507437577   -0.72607117694086    1.26458482218062
H           1.53373382021697   -1.74681100775226   -0.43763568584488
H           1.74615921788214   -0.22588593262798   -0.75183972125317
N           0.37361719623699   -2.96100956409463   -0.78193389483860
H          -0.00776243481895   -3.13832477110763    0.14004700306202
H           0.63335223260948   -3.84669875135565   -1.19666455274765
H          -0.36878529490569   -2.55228179381475   -1.33736451553483
