    26
        -50.44005883  Gyration_radius:  2.53758631543 Dipole_moment: 4.993
 S           0.05384114205313    1.55970800766839    0.54599198879810
O          -0.67148858429017    0.53143608170459    1.23589817826417
O          -0.37602032597632    1.73921840417586   -0.84769654583529
O           1.50002190277459    1.38537966924905    0.59857376591069
O          -0.21877311751600    2.93363328910796    1.27739756119533
H           0.55472193932261    3.44360612414679    1.05820135872867
H           2.11083181760509    0.21266733841242   -0.21854889507905
O           2.41430952896249   -0.48498960245661   -0.87365757502101
H           3.30663541633188   -0.24126535589159   -1.12652696343544
O          -0.92913030334500   -2.16691673790436   -1.44335635707528
H          -1.05710794696643   -2.89383709636171   -2.05543891712054
O           0.24587357952667   -1.65256911447285    2.42266444812998
H          -0.52884524736472   -2.01732770168062    2.85432158257751
H          -0.04416171205224   -0.79912192977019    2.03786645533671
O           0.28723263207407   -0.14664284628763   -2.28327040767123
H          -0.06723495294125    0.69602432957831   -1.72800693309384
H           1.19568216572021   -0.32594598179708   -1.87522433968582
H          -0.31086219452398   -0.96499935797443   -1.99243972192301
O           1.03150879347675   -2.73957932735245    0.12620681468394
H           1.71319517179380   -2.11148030037483   -0.14811502723366
H           0.77652722518373   -2.45463343141187    1.03428803250876
H          -0.23073155671977   -2.46303237835208   -0.77727295073199
N          -2.97738816639359    2.21208804662041    0.50271820050160
H          -2.46463821087236    2.33270251039544   -0.36330756444887
H          -2.56066089954369    1.40519901054295    0.95321786083582
H          -2.75333809630874    3.01067836049396    1.08551594085662
