    26
        -50.44005859  Gyration_radius:  2.53901356215 Dipole_moment: 5.039
 S           1.51451161547668   -0.36580461493378   -0.54552502017815
O           0.78541925180606   -0.10926538895818   -1.79559036118952
O           0.81289607618762   -1.23631895181933    0.35385394024586
O           1.91315214591207    0.89819261428930    0.06096779878168
O           2.86918855599426   -1.06775638220992   -0.95656057071670
H           3.42216074216599   -0.33042167366342   -1.19504933891979
H           0.80211184932546    1.93590550148611    0.38418310791612
O          -2.76816220498801    0.07396225658240   -0.00097420792683
H          -3.69452536591853    0.31917905014294   -0.03451548928342
O           0.03365806385085    2.57999903775981    0.43454743503344
H           0.41836663795371    3.45692353222986    0.38466348117242
O           0.03641672917801   -0.75308185693503    2.84031178328410
H           0.40326700500293   -0.91706890376110    1.94637695980953
H          -0.30109669522263   -1.59909038112070    3.14016931572277
O          -1.17818986851486    1.33687059472952   -1.46576981627987
H          -0.36393398353577    0.68095881360776   -1.69297088915250
H          -1.88566815945112    0.75704252632466   -0.94211700932159
H          -0.78570719795268    1.96192504990451   -0.77344435303695
O          -1.71082853068089    1.11244303280252    2.10598169475134
H          -1.11814300806729    1.78150928974347    1.73783410660662
H          -2.40909786724547    0.40254970946591    0.88338920332178
H          -1.11320378311152    0.43663905175094    2.50214436531439
N           0.93465744093011   -3.07029181330045   -1.94825107659065
H           0.75868036255289   -2.22364991864509   -2.47686446432316
H           1.93807880887816   -3.21368531720036   -1.95572438854243
H           0.68599139922215   -2.84766489792354   -0.99106615663609
