    26
        -50.44071535  Gyration_radius:  2.48846125362 Dipole_moment: 3.255
 S          -1.39882639018151    1.43354009095760    1.02887153349465
O          -0.70006957120920    2.18628387828973    0.02097654758489
O          -0.52388455836202    0.84057838410002    2.04239573589927
O          -2.30520631141940    0.42898232990928    0.49103749562120
O          -2.30004226861041    2.47229524151460    1.81369460225365
H          -2.69167678437132    1.93745944123571    2.49671384583706
H          -1.79541623323960   -0.98609310720960    0.15738505884878
O          -1.40396094784574   -1.90863744491748    0.06474344108552
H          -2.08652869214387   -2.51466481952621    0.35756535044244
O           2.31618770518626   -1.57262395034485   -0.47945240799369
H           2.55965970063115   -2.49945676658719   -0.51236643403574
O          -0.54566530850652    1.18021191388085   -2.44029924187503
H          -0.69744002601691    1.53823956459375   -1.54209068651752
H          -0.07238184641217    1.86220255870634   -2.91927979341982
O           0.66571939582372   -1.27123644077682    1.44344879615616
H           1.43645655734977   -1.14060938326080    0.75806811390039
H           0.31203515786711   -0.32881467669991    1.72311480473682
H          -0.11078541104100   -1.66120989500488    0.92093506944886
O           0.29195952637347   -1.36162583347639   -2.12443026919559
H          -0.42876749614060   -1.68843212305762   -1.57083341399774
H           0.03866503158722   -0.44158846633048   -2.34186429109194
H           1.63841181047712   -1.43491368019604   -1.19515324521361
N           1.88315100860324    0.96779035709362    0.49974086805473
H           2.33507143109178    1.39414869431927    1.29837882381621
H           1.06239692803148    1.52731288787825    0.29125300016323
H           2.52093760247513    1.04086125491150   -0.28255329400405
