    26
        -50.44005892  Gyration_radius:  2.53774752406 Dipole_moment: 5.000
 S          -1.00965726848838   -1.14578929764170   -0.63293065824334
O          -0.70656327573581   -1.08416163242318    0.76841235036356
O           0.18268467428567   -1.28805124479470   -1.47998430828022
O          -1.81844471542736   -0.02752423755381   -1.10184394957783
O          -1.89608807237723   -2.42813593970250   -0.89163444019053
H          -2.37481050359445   -2.19493620281402   -1.68083299005724
H          -1.14139810543515    1.36983707938180   -1.16960469945295
O           2.39387160793085    1.13443172849095    0.79075695949953
H           3.18344646811870    1.66859933656753    0.89414053107978
O          -0.58148293210652    2.19356174630061   -1.29598129544370
H          -1.00596042061884    2.69868055907881   -1.99186501040514
O          -1.28059933304051    0.82015432711133    2.51901350978340
H          -1.00918363083732    0.44479431168515    3.35865036386256
H          -1.15299133034135    0.10793666472792    1.85798746925912
O           1.54416452444461    0.76158309919691   -1.53421947197167
H           1.03184768414093   -0.17715368319668   -1.54220872640107
H           0.78986780162032    1.43611721544337   -1.53871499314113
H           1.98523734220196    0.84923899200556   -0.58035304235301
O           0.33596264264619    2.57896884816484    1.35051014403824
H           1.61761037178161    1.69089983319736    1.11782739644538
H          -0.09417251058118    2.67749853477944    0.49042290825959
H          -0.28145468042326    2.02189591508326    1.87904691606113
N           0.52951341131917   -3.70059645551678    0.21538113276564
H          -0.32131686684113   -4.21061526531108    0.00684526630512
H           0.81637032902176   -3.25123400984088   -0.64670445439963
H           0.26354678834313   -2.94600023246093    0.83788309217961
