    26
        -50.45054788  Gyration_radius:  2.5198898984 Dipole_moment: 7.518
 S           0.15096246961746   -0.96700407808010   -0.98687748320651
O          -1.07891453204129   -1.02373800979840   -0.07253691654013
O           1.35966492204165   -0.83960307646724   -0.23169296312104
O          -0.05847175475610    0.09822313309222   -1.94851936393973
O           0.10954408029101   -2.31419983504079   -1.69925441071118
H          -0.77900938839883   -2.28189593045971   -2.21886594287208
H           0.21774716194422    1.57350479724856   -1.24751774600154
O           0.28992697243231    2.39003495767232   -0.70228430521858
H           0.10653316291091    3.12724823857716   -1.28743611007607
O           0.81239725713623    0.95073818295577    3.01181948512141
H           1.07922793231933    1.41331106367742    3.80660362885162
O           0.83772582060284   -1.86045391452231    2.36000087248274
H           0.77835584472753   -0.99507091585306    2.78289565964345
H           1.11597263557732   -1.68669342601314    1.45410062262547
O           2.36149285770742    1.43009768342248    0.92730270743715
H           2.28622620589608    0.54954415920423    0.52672095311339
H           1.80802603693303    1.99847637199333    0.37270921467218
H           1.49553778021723    1.14524660051171    2.31936024525904
O          -1.18246065854149    1.12014565438093    1.23235629873634
H          -1.17093396617435   -0.17328907917438    0.52502880404269
H          -0.58261985346677    1.01769904711480    2.00284953211362
H          -0.73130823067507    1.73653536269620    0.62669203083660
N          -2.10958579772059   -1.74939590017101   -2.82309944242648
H          -1.80575083996613   -0.78489000598923   -2.90361359762306
H          -2.83233043375869   -1.80540934556369   -2.11771243099378
H          -2.47795569484060   -2.06916176539498   -3.70902933219144
