    26
        -50.44071469  Gyration_radius:  2.48837131407 Dipole_moment: 3.253
 S           0.00148837104509   -2.25087844051560    0.07201738305788
O           0.99773199009660   -1.86730635417222   -0.89289235737628
O          -1.35251040366508   -1.80418563396599   -0.26129720714767
O           0.33405989910980   -1.88266087844992    1.44100996899211
O          -0.06103254632309   -3.83255302013032    0.04040586189431
H          -0.75159000928189   -4.02902850982233    0.66530172115292
H          -0.04367458613485   -0.49439004135785    1.99243275199293
O          -0.78455092458219    2.63771167144398   -0.70876397998688
H          -1.17210780177305    3.40749190612575   -0.28853227047326
O          -0.41625603093837    0.38834134628588    2.30044576348211
H          -0.72742838484155    0.24461386843527    3.19566825010299
O           2.75461046871377    0.01823994602859   -0.22104928110017
H           2.13523940884431   -0.72106767818397   -0.38751413956652
H           3.31182649341117    0.07540261471642   -0.99879657959901
O           1.28682832529189    2.04576640929792    0.77714463199598
H           0.86106772338524    1.57730613437666    1.50649498520003
H           1.89594804311820    1.38842850500546    0.38360409209644
H           0.08077319311273    2.47126831866633   -0.24615779072357
O          -1.93937515009842    0.56981099253951    0.24185501606205
H          -1.73508954036591   -0.38983540938027   -0.11724803357586
H          -1.42061164575846    0.60346438280881    1.11243317783690
H          -1.48469778399857    1.25873645787978   -0.39018362689657
N          -0.56793823781828    0.25852702629387   -2.08354697269349
H          -1.23384848125758   -0.11800286696718   -2.74585050783587
H           0.04458961740916   -0.50464525236064   -1.81427071033668
H          -0.01345201670410    0.94944453540384   -2.57271013654737
