    26
        -50.44071535  Gyration_radius:  2.48829591084 Dipole_moment: 3.256
 S          -0.59451516523806   -2.07619878651961   -0.63401360124283
O           0.50616892100183   -1.68350531329987   -1.47368797449862
O          -1.76916376871943   -1.20936715636873   -0.74835973059678
O          -0.23250837918444   -2.25787055931224    0.76448852508142
O          -1.07004687062853   -3.49231353226114   -1.15902888288567
H          -1.82648140722104   -3.67696249081719   -0.61158604487801
H          -0.25342127421803   -1.06468654928521    1.73903110488782
O          -0.02676813417162    2.83207169808358    0.18684010644333
H          -0.21410993523321    3.50732690319172    0.84127038152435
O          -0.39234233840681   -0.25761492330594    2.32402677538267
H          -0.76747283834970   -0.58723288223875    3.14228248428475
O           2.67043803932009   -0.63818925907116   -0.32655869561699
H           3.25500980055168   -0.49043428309127   -1.07154528029903
H           1.88468506530833   -1.09655300418188   -0.68781247725691
O           1.75043672261578    1.28343537850352    1.32290632925811
H           2.18060981799517    0.64704216418999    0.71623810113125
H           0.74336255817500    2.30781200393310    0.53710899895792
H           1.18606174633805    0.73922298355448    1.88680694801636
O          -1.72713004408832    0.95442023743663    0.49660404978207
H          -1.08082832931902    1.66064666639505    0.09119862447772
H          -1.76971044698598    0.13751072714693   -0.15326685572969
H          -1.25415021737962    0.57566682663601    1.30967235861935
N          -0.40000873212373    1.03787136934506   -1.87331488119708
H           0.33443070261028    1.67778876166228   -2.14759914046071
H          -1.11391512394217    1.07282301740916   -2.58952765670342
H          -0.01863037870860    0.09729004227342   -1.88217358647880
