    26
        -50.44071508  Gyration_radius:  2.48833344131 Dipole_moment: 3.253
 S           0.21141662044415   -1.89711068958403    1.19436697951689
O           0.91503173636449   -2.10670205571797   -0.04320721615498
O          -1.21631590179665   -1.61817248078964    1.02757379694286
O           0.82506710051413   -0.89943453216070    2.05936913573901
O           0.27878348851556   -3.26974044824256    1.98075934600518
H          -0.23204193921225   -3.09007723887974    2.76354885209531
H           0.47088285553405    0.59259668008004    1.90877848142136
O          -1.15149843503707    1.94240336590322   -1.72366914431994
H          -1.49379933033143    2.83645904076044   -1.66986540489248
O           0.10733198589059    1.52587014789785    1.81036287253514
H           0.02965267655744    1.87317628534033    2.70046139073144
O           2.61270195433065   -0.22840759996101   -0.87005726983077
H           2.96530991804045   -0.60265327732231   -1.67894158048219
H           2.03695217111675   -0.91870557655309   -0.48281838055925
O           1.25462567772708    2.09317485491554   -0.70557515099732
H           1.05459313440095    2.08252400293548    0.23918963081172
H           1.80760067334039    1.29856747999315   -0.84978555504250
H          -0.19054235585852    1.99417334462285   -1.46973648775937
O          -1.86838086275124    0.70619177503250    0.39091318512806
H          -1.67337088169614   -0.31107919318299    0.52768200078798
H          -1.16366812168952    1.15379810478246    0.96645214201493
H          -1.63644377860120    0.95386289713142   -0.59172133668865
N          -1.06471952101088   -0.81285922893703   -1.71420616951897
H          -0.34228785158576   -1.36064170276555   -1.25794540478807
H          -0.70350702002362   -0.49528739612785   -2.60460208984071
H          -1.83337401318136   -1.44192655916923   -1.90732661284602
