    26
        -50.45234092  Gyration_radius:  2.45885485332 Dipole_moment: 5.682
 S           1.98306774187280    0.90238550747331    0.12687292976862
O           0.92727120797419    1.17628637467246    1.23483197469340
O           2.65874301183205   -0.39282620657956    0.56533858532610
O           1.24645387024069    0.66095341931176   -1.10433201277733
O           2.91494451258262    1.96723643397140    0.08039829090164
O          -1.31089828533714   -1.61917954028667   -0.95044112266329
H          -1.86638866388535   -2.36041103312850   -1.19459486506575
O          -0.74995593980969    2.27501685573960   -1.72138150058264
H           0.07390229322742    1.76494455879074   -1.55915279065119
H          -0.51171334107777    3.20029052166393   -1.65220483085397
O          -1.45930004398285    0.74390910995410    0.40631970084338
H          -1.46533715600357    1.37678068767694   -0.33771742459479
H          -1.49226082176976   -0.13853801621160   -0.00802216387071
H          -0.01888287343855    0.97384448641498    0.92331255008951
O          -0.27779868516072   -0.41417408758240   -3.04666724395607
H          -0.76692356106871    0.40435292054104   -3.18006939600813
H           0.51030750180052   -0.15462120491810   -2.54125464614699
H          -0.94374485126283   -1.24328986827457   -1.79384063158946
O           0.73194127762902   -1.98410649329884    0.85408356669738
H           0.07244068483167   -1.90785611731565    0.14100612678136
H           1.91707293887494   -1.10150539286994    0.65610563950966
H           0.28262118681599   -1.64818797617546    1.67253292156322
N          -0.51216586826637   -0.80280071523041    2.93430147696318
H          -0.76575953951929   -1.25426059595433    3.80365215794227
H          -1.33673827957355   -0.35306656036272    2.55409383225773
H           0.15910167247722   -0.07117703802052    3.13682888542418
