    26
        -50.44071523  Gyration_radius:  2.48813376763 Dipole_moment: 3.255
 S           0.76815088885790    0.81526110737964   -1.95080400263171
O           1.85683406208874    0.08058267342479   -1.30326689903282
O           0.28562043260351    1.93722910951626   -1.18980137420382
O          -0.27975574709951   -0.10170436400082   -2.37624472210947
O           1.39994996849715    1.41462762270330   -3.27318561698345
H           1.75322893662808    0.64411279213378   -3.70612963857354
H          -0.73296295032776   -1.25162101251233   -1.45670508565593
O           0.01748037489169   -0.96727232379432    2.66563290545555
H          -0.14306385575560   -1.78794193070042    3.13479092470737
O          -0.89459973094210   -2.03016072032001   -0.83966973674603
H          -1.01534329956962   -2.79409188005099   -1.40601693962437
O          -2.12363740717725    1.77124089700789   -0.06690252206428
H          -2.22451792277751    2.62976167195333    0.34708676935580
H          -1.28037207542749    1.80880758216583   -0.56235248636098
O           1.23946399250800   -1.53415253774774    0.49834996221400
H           0.39820541459413   -1.86023030149905    0.03554216035246
H           1.58999968366336   -0.79016817470793   -0.14582487428168
H           0.92569892734062   -1.08091722384366    1.37991608810915
O          -2.14245309393372   -0.58510729260824    1.23917155246355
H          -0.83932234723164   -0.72681949051479    2.21974310171796
H          -2.21174627101729    0.30675050658876    0.84174730414290
H          -1.97557226953837   -1.17295666321627    0.49132434704602
N           1.36402256766901    1.04495879320866    1.34558831833409
H           1.01109350784825    1.50811103545005    0.51424674385403
H           2.34819294393462    1.27013302331921    1.41292367836551
H           0.90540527964891    1.45156711064461    2.15084007215155
