    26
        -50.44071430  Gyration_radius:  2.4885902822 Dipole_moment: 3.247
 S          -1.16662607930870    0.63958195828003    1.81827587092387
O           0.06810927281515   -0.00548054883911    2.26909182010989
O          -2.03115684756134   -0.22153348277509    1.05557464367055
O          -0.86735357323210    1.90487403747829    1.16273981590782
O          -1.95626486438890    1.00152350503379    3.14205648055520
H          -1.33449576923849    1.54332987421056    3.61728345390802
H           0.31708555852171    2.01921030357180    0.18340965218052
O           1.16532617772874    2.03077488812695   -0.35793455513212
H           1.58387585612675    2.87314600921136   -0.17311426288902
O           1.83288913232735   -1.46971300579713   -1.60456557070374
H           2.66436923846959   -1.32057340765811   -2.05813776322880
O          -2.26990778408719    0.21714953267801   -1.56086232118636
H          -2.20556720054782    0.14848686380633   -0.58670190356027
H          -2.90553113038978   -0.44757917061673   -1.83057500068736
O           0.25227499052044    0.41971676647614   -2.48884774671568
H          -0.69151286591833    0.30672857893640   -2.25576108273638
H           0.54682258786803    1.16892233490652   -1.95543829707541
H           1.17197294445172   -0.85277488749807   -2.02022804857715
O           1.92827715719166   -0.21804508659175    0.61758528790016
H           1.75372425952281   -0.92519322332928   -0.12429051938324
H           1.76480229144375    0.68533950193638    0.18716381175025
H           1.16028379230527   -0.28539740878406    1.32286443694783
N           0.02449265675263   -2.14054987817540    0.36336347978878
H           0.18466720463374   -2.78247462620096    1.12896772997777
H          -0.19373861542654   -2.69499383134082   -0.45462380162720
H          -0.79681841059135   -1.59447559704207    0.60270436988206
