    26
        -50.45054776  Gyration_radius:  2.52021349422 Dipole_moment: 7.526
 S           0.42949253772657   -0.84582879504825   -1.01525337823307
O          -0.44273261449785   -1.41860695280402    0.10855837363454
O           1.53302937566849   -0.09956439894662   -0.49288550626304
O          -0.43001856035909   -0.08494674319290   -1.90166426623404
O           0.92596790894080   -2.09567069019271   -1.73332273586000
H           0.05969262978812   -2.53125545819161   -2.08042406966577
H          -0.78842819138691    1.38893970486663   -1.23542585573689
O          -1.02955110195032    2.17731041030492   -0.69739898076683
H          -1.64462028468127    2.69080576313214   -1.22421724006547
O           0.74966930600428    1.44207667292695    2.82831812446553
H           0.88729935469038    2.03429069680782    3.56810829613423
O           2.02261362280186   -1.05265407907317    2.13067841616283
H           1.62471654076130   -0.29327008394430    2.57364708333935
H           2.02205273734945   -0.83385828927904    1.19235554103855
O           1.49100559357879    2.45107204357100    0.50297577255765
H           1.78471555335542    1.61543427237762    0.10680971551086
H           0.64609714186599    2.64204502440287    0.07098546880131
H           1.12355466742366    1.88875193436085    2.02538619078804
O          -1.34672380022255    0.50216007320592    1.45133223295387
H          -1.36181410411174    1.21320255660068    0.78463997953743
H          -0.83134793708750   -0.67530466173271    0.72922917031566
H          -0.65082445272059    0.75658768295157    2.09557022262374
N          -1.44223651049920   -2.74751877010155   -2.42130083557288
H          -1.75209039490895   -3.26803178128585   -3.23116755885797
H          -1.66230315438367   -1.76414737899539   -2.53811816727185
H          -1.91721586316435   -3.09201874273245   -1.59741597333544
