    26
        -50.44071535  Gyration_radius:  2.48839554496 Dipole_moment: 3.254
 S          -0.58132960764342   -2.17411663139719   -0.05899120154691
O           0.54739950870074   -2.02224629080937   -0.93856083889883
O          -1.74844545126182   -1.37856827034651   -0.44541748300630
O          -0.26552802387267   -1.96139474426064    1.34631559564633
O          -1.04497078496097   -3.68257212526716   -0.18824350997577
H          -1.81941688999766   -3.71350082938110    0.36421938873122
H          -0.31268995480238   -0.54690182401822    1.95503479752312
O          -0.02654312268393    2.77657878756740   -0.59793765331923
H          -0.23343801355471    3.60228739113664   -0.15658643408727
O          -0.46729405599775    0.38899781079441    2.29138992259231
H          -0.86892377205815    0.29468848626518    3.15666267233156
O           2.67736082170502   -0.69016827340616   -0.05395609237824
H           3.28742377855486   -0.75187363088201   -0.79056161671192
H           1.90199858291052   -1.23429699458001   -0.30038683526751
O           1.71092385996302    1.60701283125924    0.97141970093851
H           0.73137857767647    2.37230215184225   -0.09543406123606
H           1.12758642523941    1.23574001026086    1.64559810243738
H           2.15814073142704    0.83083285558880    0.57713952664848
O          -1.73980020174947    1.04352019835451    0.16021032401244
H          -1.07900515776892    1.61553591004330   -0.40275340182897
H          -1.76375218890357    0.07935013086805   -0.24174992218207
H          -1.29411957564980    0.90560478186304    1.06056376021786
N          -0.33239274245142    0.48249636594880   -2.09568786197634
H           0.04412921117614   -0.42327866900378   -1.83494773638557
H           0.41385660866419    1.02599615651329   -2.51021274805439
H          -1.02254853266114    0.31797440505072   -2.81712639421800
