    26
        -50.44071478  Gyration_radius:  2.48827495274 Dipole_moment: 3.249
 S           1.09166799758580    0.08405959712819   -1.96757555388719
O           2.05883523624959    0.33378234173210   -0.89693934042147
O           0.03445260690643    1.05756788857869   -2.03949879652776
O           0.62208467266597   -1.29325890834980   -1.91525898509985
O           1.91402273474698    0.22226262770913   -3.31350212609647
H           2.61444566350883   -0.41203498886693   -3.19930278218972
H           0.27941878028890   -1.95337377600785   -0.56578792579763
O          -0.59685561206060    0.49550178235594    2.73290000768660
H          -0.63168049002242    0.01019489695575    3.55912809863850
O           0.17731843991972   -2.33562296706688    0.35959546958081
H           0.52053288936384   -3.22952182591907    0.31426492322674
O          -2.41590072837089    0.32063183379429   -1.30048333941779
H          -2.93316364551450    1.11120636548427   -1.46207332706510
H          -1.51554548432657    0.51590839921081   -1.63112826771963
O           1.41876466222091   -0.35281308210216    1.41653908071813
H           0.68633906948041    0.24705352209293    1.84568252416902
H           0.94958072296749   -1.20371834488235    1.12651797592626
H           1.70625490833041    0.07898304115331    0.50965709777986
O          -2.11866344839384   -0.86932863334426    1.09880182030311
H          -2.33173413521198   -0.40886533425928    0.26176684655732
H          -1.51821390001229   -1.57998125023193    0.83978096348692
H          -1.27181644810579    0.07688711377670    2.13308906648315
N           0.37088582533575    2.03880429732208    0.66430830663930
H           0.20673559268274    1.84655401894696   -0.31867600311539
H           1.13336154062455    2.70226477985822    0.71152718395068
H          -0.45112745087220    2.49685660493124    1.03666706221706
