    26
        -50.44071463  Gyration_radius:  2.48849824355 Dipole_moment: 3.248
 S          -1.30556247600019    1.82291000984437    0.21721065740332
O          -1.77968921543430    0.80521317383978    1.15706207238931
O          -1.37965637835576    1.42358006241322   -1.16322720247969
O           0.00519236648360    2.31320346326173    0.61968032262985
O          -2.30442635690046    3.04044877967071    0.38096936996610
H          -2.24185937678596    3.24195790572009    1.30908615540801
H           1.08792357827569    1.33616572351308    1.11630170890508
O           1.69688922537527    0.64530060378988    1.52231140312012
H           2.12448107113918    1.07516046793750    2.26479061509590
O           0.79578439096286   -2.72745316575673    0.08632940246797
H           1.40983305546446   -3.27964329824740    0.57357360180770
O           0.88905276818339    0.89913234721958   -2.45618147919364
H           0.58571299460889    0.68929862699646   -3.34078608745906
H           0.09380111921805    1.17663494225404   -1.95767062377720
O           2.26308399599798   -0.77365115919087   -0.85111877865884
H           2.33405036169553   -0.20782659410790   -0.07170956010836
H           1.34632660169139   -2.05175275647459   -0.39407702888410
H           1.81838222559947   -0.21606057506792   -1.52139464531606
O          -0.21537648091698   -1.05493766119536    1.72788468750462
H          -0.07455087660533   -1.73801595304114    0.95705693210221
H           0.61286704256253   -0.46998401442535    1.73858296227086
H          -0.96975286467888   -0.39032089349058    1.44374232568190
N          -1.52278875634751   -1.41898900762395   -0.62668482409211
H          -1.56500097047095   -0.45570476695925   -0.94364336305352
H          -2.46598015455822   -1.68940240469775   -0.37953101485437
H          -1.23873690020015   -1.99526386617260   -1.40855760887551
