    26
        -50.45054791  Gyration_radius:  2.51985896337 Dipole_moment: 7.516
 S           0.01305262040411   -0.62528118933257   -1.24169754229739
O          -1.27805313355907    0.04971795735806   -0.76284113200518
O           0.54842155692774   -1.49910039058863   -0.24304362164363
O           0.92853423800543    0.41631683454556   -1.66630774051395
O          -0.44952375980816   -1.42494769495945   -2.45443542419968
H          -0.78899604383338   -0.69994675224148   -3.10237290813699
H           1.62710096188110    1.14390258797679   -0.35222802591224
O           1.88562491784702    1.57830041870512    0.49254854285332
H           2.45452481480838    2.31416486648377    0.25937945068152
O          -0.31703154719687   -0.37874005503054    3.22373827016101
H          -0.24532800299265   -0.36919472157948    4.17856027013409
O          -1.59824433104414   -2.25518253249715    1.44539776849460
H          -1.34214218049553   -1.67642889648505    2.17392959396659
H          -0.88770135285124   -2.18572806676491    0.79837425723173
O           1.97758925738247   -0.79540210520334    1.98457628302247
H           0.57941655702996   -0.60984788016789    2.86735015736173
H           1.61221031122534   -1.29479607090058    1.23718331857112
H           2.18655817854558    0.07546560885439    1.61733890335465
O          -0.73752490541145    1.41245274832570    1.27696322377810
H          -0.75062429961835    0.80063255627774    2.04472207091339
H           0.20169924518497    1.62399613804881    1.12403697341081
H          -1.13562042723711    0.61289204952664    0.10385125168914
N          -1.10237046056424    0.69618316992172   -3.71174812323929
H          -1.95085959149344    1.05076465995980   -3.29056173926446
H          -1.12250153361527    0.86973960214997   -4.70787289406254
H          -0.30821107958992    1.17006713761814   -3.29484118423908
