    26
        -50.44071498  Gyration_radius:  2.48817224494 Dipole_moment: 3.258
 S           1.35788597901973    1.15123083446509    1.37593884335325
O           0.61300476706972    2.11287309118121    0.56054625469120
O           2.19230892588832    0.26007581743245    0.61404882088785
O           0.46355426991096    0.47140439773647    2.30204472353324
O           2.33582221999746    2.02747159498792    2.26079110011604
H           1.74436825258912    2.64277804868753    2.68210755110428
H          -0.92280405696273   -0.01238720371676    1.83646014987099
O          -1.84375769938586   -0.20255960974152    1.47765527551811
H          -2.45079872747170   -0.00207236893308    2.19194135243791
O          -1.59378122236839   -0.60320854542091   -2.26680094732993
H          -2.51851419850457   -0.73902145918991   -2.48078608332854
O           1.47849628491225   -2.29869803827821    0.42349388181357
H           2.19095536668393   -2.67986033773485   -0.09194671599193
H           1.73388134750564   -1.36835431717784    0.58867195780757
O          -1.45909602236531    1.29768889362500   -0.56957515146510
H          -1.75245607140492    0.71137188746338    0.20401906089594
H          -0.54322296715387    1.67901856487037   -0.24257336512787
H          -1.27868031743359    0.65409123698043   -1.36601398312687
O          -1.11534380038389   -2.26618887536613   -0.30443744140826
H          -1.47504297258936   -1.77447336112605    0.44494558715388
H          -1.34861057854684   -1.31574571251867   -1.61635851840411
H          -0.16636103679967   -2.37936950265685   -0.09297870162533
N           0.82398733363932    0.67310370506761   -1.90430124949227
H           0.96142544471927   -0.07517127261315   -2.57160218958891
H           1.43662323072227    0.50613808978288   -1.11245621597765
H           1.13615624872186    1.52986445212406   -2.34283396627617
