    26
        -50.45234091  Gyration_radius:  2.45890317964 Dipole_moment: 5.681
 S           1.82980886043118    0.04273329140856    1.18869351453492
O           0.46594005249247   -0.27441868931283    1.86448227786376
O           2.31752230318338   -1.30880201033231    0.67715552085550
O           1.54471350643426    0.90610500499497    0.05292406781251
O           2.72652731789244    0.57339789089834    2.14715319546741
O          -0.92320382315755   -0.12973582884220   -2.09170659983221
H          -1.36683767468923   -0.33215620200391   -2.91621009193458
O          -0.12801471055943    2.92195764733906    0.38508498975597
H           0.59345305713291    2.26025403177296    0.30244776001064
H           0.07571821804377    3.44694695151841    1.16004676908895
O          -1.50935776327480    0.58565963113807    0.47591686125525
H          -1.26563572869093    1.53139935317514    0.45802906009042
H          -1.40456251195627    0.27679691552204   -0.44332614469739
H          -0.32281930719198    0.03355489148648    1.30224821841798
O           0.75227141487880    1.88289285162355   -2.32820384699360
H          -0.29511000469177    0.61752248309213   -2.27746858410456
H           0.33764165726647    2.65359388877776   -1.92679799450589
H           1.32716683922925    1.51900169109239   -1.63462698052593
O           0.40063657435684   -2.12180948009270   -0.73449340318649
H           1.58631235892563   -1.67341235387372    0.05036672313272
H          -0.29481855469743   -2.34601197456761   -0.06322863473345
H           0.01655154288543   -1.41719124091984   -1.28695985856552
N          -1.46284763691388   -2.44269672340710    1.18789524650221
H          -2.11176789116709   -1.67129454087339    1.08507065163381
H          -0.89580453950373   -2.24753704958994    2.00477571302589
H          -1.99348356667103   -3.28675041002105    1.36073155962475
