    26
        -50.45054778  Gyration_radius:  2.52012843141 Dipole_moment: 7.526
 S          -0.64474744622776   -1.16820664201772   -0.38862752695540
O          -0.92495632879075   -0.88241914545051    0.98515132978280
O           0.84723958637991   -1.00402411679646   -0.70290751554139
O          -1.38953359576814   -0.34879412161722   -1.32520989164232
O          -0.89638277114471   -2.64206079883329   -0.68636122614922
H          -0.68746253617218   -2.72118206129463   -1.69171767029807
H          -1.32539417554579    1.24495567008236   -0.87775678602583
O          -1.12198797179047    2.16371209002734   -0.58854767480750
H          -1.55341691881411    2.74943721531350   -1.21330082738022
O           1.47375037072322    1.60657900231205    2.42585975802002
H           1.79027790241105    2.23724704947348    3.07311691780431
O           1.47937628598547   -1.27905696520556    2.43233783372848
H           1.67309232891530   -0.33942655857200    2.53648987861532
H           0.60761948354900   -1.31934545624143    2.02409908699499
O           1.48443279986840    1.38179027392928   -0.24302931694417
H           1.19190410565491   -0.03895402043486   -0.50638344645642
H           0.63656981015223    1.83966696270571   -0.39039685930031
H           1.66077962849878    1.45264266978681    0.72027708208997
O          -1.15304469669270    1.58279403586451    2.15548286230284
H          -1.28610066833825    2.01433332980681    1.29931370489546
H          -1.23798516263621    0.63471052914676    1.96724874607725
H           0.48254498700082    1.63138052706530    2.45653694817120
N          -0.33421962999892   -2.32903977782575   -3.15465273979624
H           0.66816354451650   -2.21512388651123   -3.22800559826137
H          -0.76559357844597   -1.41151890898739   -3.12088556073257
H          -0.67492537320988   -2.84009687566193   -3.95813150819232
