    26
        -50.45234083  Gyration_radius:  2.45882431622 Dipole_moment: 5.679
 S           1.58563241752936    0.07639579606615    1.49697182371633
O           1.46812060723371    0.96459109806370    0.35065147441208
O           0.13929144221329   -0.31784173934340    1.90922613738437
O           2.21780087107600   -1.23674439862867    1.04713829295349
O           2.27243273704980    0.61095577842428    2.61367715366979
O          -0.53040051542788   -0.09671116512292   -2.22527533246239
H          -0.81127120354046   -0.28893392421605   -3.12069535265001
O          -0.32633619151889    2.89971707397289    0.43051511192668
H           0.42742231379103    2.27031987714427    0.46107822579469
H          -0.28677173423977    3.40669386068281    1.24235266765071
O          -1.59537834068735    0.50879283426672    0.21334696908101
H          -1.39526500533272    1.46354439345434    0.26346367740557
H          -1.31510384098103    0.23498112257669   -0.67987990208344
H          -0.55063567262492   -0.02262348467193    1.22358366717234
O           1.06608039266919    1.98921928514673   -2.10738188506247
H           0.08588548493872    0.68110329197712   -2.27667849868317
H           0.55159885033242    2.72795105102206   -1.76589773796622
H           1.52589027749770    1.62570356261022   -1.33253008427131
O           0.62096644181770   -2.07852702384553   -0.70501495111044
H           1.62684591168522   -1.60953180296932    0.29061916556060
H          -0.17172554292474   -2.35265613565481   -0.17484530246166
H           0.30953735212741   -1.37168586601475   -1.29879357049084
N          -1.53744352952470   -2.53809701763906    0.84451358171574
H          -1.13378055110582   -2.34598105106373    1.75394037522917
H          -2.04981245162708   -3.40891358812257    0.89913324487571
H          -2.19358053042303   -1.79172181811202    0.64678104868276
