    26
        -50.44586474  Gyration_radius:  2.48359355917 Dipole_moment: 6.906
 S           1.06927247690867   -0.18965342291084    0.69843974867763
O           0.02048695200166   -1.21300108234996    0.48148738680705
O           0.52951029171338    1.10215955580531    1.00657509250679
O           1.92610724221064   -0.16806337336295   -0.49341901590557
O           1.93172987773437   -0.68098967272693    1.89206262243027
H           2.30274058848513   -1.53137487574405    1.57196847114832
H           1.16368601483736    0.46228441768541   -1.71105224868069
O          -2.89849765207027    1.14984571012768   -0.76776562621686
H          -3.54476307283636    1.50964026706599   -1.37800429099767
O           0.54822290944916    0.73243290642298   -2.45326258237682
H           1.01754668947317    0.54649405447734   -3.26923894392305
O           2.42456563336977   -2.69019540833196    0.27244522881554
H           2.47305150857219   -1.91084387932252   -0.30541732528056
H           1.51036410934392   -2.98890859745193    0.23461307711993
O          -0.76383390929804    2.62852581856222   -0.74878810113897
H          -2.17137967905922    1.83063134983175   -0.66886596457163
H          -0.29090688539562    2.24610445913396    0.01705235849966
H          -0.25300239588441    2.35018682847525   -1.51834502711388
O          -1.36466790056915   -0.70329580242759   -1.48772954242601
H          -0.68295185870202   -0.16486405156862   -2.00772412585652
H          -0.82441865211261   -0.98989077160950   -0.59858694664211
H          -2.09010845615172   -0.01602648740904   -1.17336783485445
N          -0.73948761288704   -0.35288452527415    3.27836732564619
H          -0.63162782172838    0.58066608320708    2.89801428495346
H          -0.79171723880583   -0.97144902483326    2.47742158163992
H           0.13007886144701   -0.56753045548674    3.75312040771806
