    26
        -50.44586453  Gyration_radius:  2.48367246708 Dipole_moment: 6.914
 S          -0.70050314637994   -0.75760284500537   -0.77780058285600
O          -0.52174709963144   -0.98620155705425    0.67489672143040
O           0.52289869746016   -0.41121542086908   -1.43983617437538
O          -1.73703714026861    0.26847050021990   -0.94471445035885
O          -1.24681220934589   -2.08288835176122   -1.37356279682848
H          -2.10257531704895   -2.20684296165712   -0.90914706142261
H          -1.20055139190433    1.67464343291271   -0.50102135351722
O           2.61102327239944    1.34665488281293    1.29652672570069
H           3.10799780859046    2.08366178177039    1.65610408482534
O          -0.82015957393722    2.48631547893191   -0.05499452877294
H          -1.54883963785864    3.10311431442079    0.04141686421720
O          -3.25303842174604   -1.59415659112011    0.25027553132377
H          -2.72472302807452   -1.65532085532445    1.05251402560234
H          -3.05128943976184   -0.72536746210880   -0.13480797963016
O           0.17793649706546    1.06007805716824    1.84880428227580
H          -0.22033964016214    1.73668868811361    1.20988438525019
H          -0.10437664157857    0.11382790212586    1.41180233683290
H           1.21569846955002    1.13204731829508    1.72876335047407
O           1.78541639427343    1.90731331441970   -1.10105585063177
H           1.46073841325125    1.03039095670672   -1.38749155881385
H           0.98875589273134    2.43763236333158   -0.97941482886308
H           2.45716440160258    1.53700573360155    0.32597821109464
N           1.44595126297841   -3.03417721463892   -0.36563400010615
H           1.76178725957362   -2.27427111778404   -0.95792651923514
H           0.88592049137773   -2.60254323915272    0.36023820299569
H           0.81070383682650   -3.58725710833679   -0.92979706661963
