    26
        -50.44586458  Gyration_radius:  2.48390679827 Dipole_moment: 6.904
 S           0.06834598493525   -0.49501594746213    1.19092217518245
O           1.31891969212957   -0.70844978824420    0.52359225084814
O          -1.09679309134022   -0.64426497843580    0.28809429063403
O          -0.01489614116487    0.83231537074045    1.81252246199837
O          -0.09964956413899   -1.55435117772985    2.31294131500808
H          -0.94124028817079   -1.29690367661532    2.74739705813052
H           0.29516957546435    1.95699910684828    0.76286560695845
O           0.63131960072235    0.34594229563993   -3.13037355922439
H           0.79707056816506    0.86485048392714   -3.91950813496098
O           0.35382910691570    2.59532402777020   -0.00616516990304
H           0.08832385782088    3.45098413810435    0.33740790067971
O          -2.28462705265059   -0.18530777323180    2.81641343967034
H          -2.69735391718945   -0.37305101120777    1.96742966076972
H          -1.61768414773069    0.49920078016252    2.64193339413654
O           2.34148602320363    0.96549628585386   -1.27627460819286
H           2.16069360127723    0.25952966574692   -0.62415876151314
H           1.40288854303070    0.49331251027943   -2.51021526821822
H           1.99771226938044    1.77033279288567   -0.87041786636348
O          -1.11615289690250    1.06901368336846   -1.47755955683776
H          -1.17283332670787    0.26969022510550   -0.75290597722313
H          -0.59726492728100    1.78720743367467   -0.98810803129828
H          -0.48001201129878    0.72444596302900   -2.23434454258543
N           0.14178821882413   -3.37760982409368   -0.09278058106573
H          -0.60501823976606   -2.69918170080065   -0.18755922209626
H           1.00361667136662   -2.85463611165869   -0.20066071001633
H           0.12236189116098   -3.69587277365117    0.86951244551951
