    26
        -50.44586467  Gyration_radius:  2.48355527731 Dipole_moment: 6.906
 S           0.98129577523463    0.80538934416071   -0.23862989110204
O           0.16524755382361    0.14776680213486   -1.28531256982205
O           1.35415374109784   -0.08839118798687    0.81838628950125
O           0.22887623723115    1.96703990207107    0.25070506144315
O           2.26296534273936    1.33239850027504   -0.93818675739221
H           1.91788598001345    1.97284615251040   -1.59695489805374
H          -1.00536918832265    1.50632829485674    1.10260993691940
O          -1.83972296203137    1.11389259867633    1.49315717874382
H          -2.44329631477385    1.84825560821740    1.62390577119623
O          -1.50180838044389   -2.68724964363495    0.91310680975700
H          -2.20808266694717   -3.17142308160249    1.34467868919482
O           0.52784254043897    2.76744498543050   -2.29200533748848
H           0.20297633941649    2.81403502707225   -1.37766642510921
H           0.08793995725273    2.00896321906475   -2.68894169963639
O          -0.35822871787950   -1.07757952708816    2.59964546199132
H          -0.98848235192376   -2.20980576032598    1.62760421602750
H           0.41948407257104   -0.79670932093968    2.07741967696193
H          -0.92608038666366   -0.29850914324052    2.63505512607577
O          -2.00572867018380   -0.61558509921595   -0.41315204797197
H          -1.07002126806130   -0.33586186923036   -0.87222678445618
H          -1.83440059618956   -1.54282484055219    0.04332122646322
H          -2.09898949327329    0.05043900361992    0.34363998053303
N           2.60066129260108   -1.64052482348931   -1.40062194925168
H           3.30065585037533   -0.94218849977576   -1.62410278531105
H           2.51162127520934   -1.63903788177987   -0.39074587283633
H           1.71860503865372   -1.28910876923913   -1.75468841630327
