    26
        -50.44541767  Gyration_radius:  2.46338653304 Dipole_moment: 7.020
 S           0.96307339608044   -1.22476417902569   -0.05614672688791
O           1.32757298735290    0.10355315306675   -0.61567348861618
O          -0.39016912742388   -1.58975109468335   -0.35688326713454
O           1.23214066857389   -1.19587682120981    1.38456233615889
O           1.91881616859048   -2.24641198301896   -0.71512474420722
H           2.80633842493362   -1.94247762106487   -0.42734321599714
H           0.13579728383537   -0.31270180234507    2.10137460030397
O          -2.30626752147492    1.65669060598422   -0.77866435297236
H          -3.01399374905228    2.28139933134568   -0.61172243807554
O          -0.49977362803216    0.38401654033606    2.43090086663333
H          -0.23016960294142    0.58750665126180    3.32900775843977
O           3.74047714160098   -0.81127393261684    0.51306666120874
H           3.03356012548812   -0.88847192640560    1.17450917732578
H           3.55725985810225   -0.00282535186505    0.02405685177671
O          -0.05544903746433    1.87011880562143    0.35855218525615
H          -0.26530165933556    1.43107605614608    1.24185157738567
H           0.59681968856808    1.12247716514448   -0.14250379669545
H          -0.94231350139071    1.87630772848570   -0.17537925055885
O          -2.58268132467942   -0.47802422351027    0.67437623348189
H          -1.92998142551075   -1.05243348869570    0.22838470630415
H          -2.18414681274528   -0.27328159521954    1.52901784949447
H          -2.54641625654748    0.80396943735377   -0.31136104825302
N          -0.62778591237903   -0.06716663203386   -2.98271013584493
H           0.30118082438096    0.27148051972289   -2.75986006010556
H          -0.75309794520950   -0.91499538473215   -2.44030772206376
H          -1.28548907344504    0.61186003191924   -2.61598055648636
