    26
        -50.45488109  Gyration_radius:  2.47425976158 Dipole_moment: 0.413
 S          -1.32892105263914   -0.04456105611505    0.39818771962846
O          -2.64776227989210    0.31295780872800   -0.27287383180264
O          -0.83765907931145   -1.30447595367156   -0.12103249184993
O          -0.38107025874036    1.03312761139160    0.25194563654511
O          -1.72108996760683   -0.19951866912629    1.85494949427718
O           1.51084385956551   -1.78271033274601    1.00511477396904
H           1.61822046346820   -2.73198700768989    1.09273919461874
H           0.68546969015673   -1.64540934264630    0.49408187486775
O          -0.12606115073981   -0.94346843538316   -2.71846755976310
H           0.71553268088500   -0.47867823949208   -2.49053841517395
H          -0.39538735327016   -1.34385775703955   -1.87645325571470
O           0.98990786650428    2.06641504906511    2.30345016516139
H           0.55378804014807    1.80901447879835    1.46748185023336
H           0.47843242800185    2.79333367428021    2.66265287993355
O          -2.05485524370607    0.76085073402554   -2.67267759004132
H          -2.44316699813963    0.55704617675288   -1.25779142899567
H          -1.26036010480495    0.14683838973307   -2.79603432519999
H          -2.74260886773617    0.43108922915738   -3.25615216132034
O           0.44334245204690   -0.42425032883875    3.05226092435846
H           0.78267547606465    0.49740822377525    2.97018952216047
H          -0.83640004641516   -0.32660904424334    2.44210777930900
H           0.97602882353052   -0.95601486482392    2.41796083627175
N           1.89255648802858    0.31660541672393   -1.45963386766983
H           2.37397243025816   -0.33770525921818   -0.85335394194479
H           1.19130566726970    0.77881080974198   -0.88556893505957
H           2.56326602707148    1.01574865886046   -1.75254485680234
