    26
        -50.44586467  Gyration_radius:  2.4835007204 Dipole_moment: 6.906
 S          -0.80024168499637    0.78762210306552   -0.63854434932574
O           0.64971462838455    0.66367725746584   -0.91507302045742
O          -1.09463533152254    0.85716493062148    0.76272269393838
O          -1.47863590832820   -0.33515739304388   -1.29756056774989
O          -1.27480236537589    2.09614819415187   -1.32580170993539
H          -1.08969117826997    1.93582755338708   -2.27627171667435
H          -1.16258725854750   -1.68264643246775   -0.55922869234831
O          -0.78152641825481   -2.49636528465108   -0.11715319103417
H          -1.03744154906557   -3.24129233409143   -0.66513038026503
O           1.77158509766960   -1.12335719955115    2.43099745371205
H           2.12284542987417   -1.82229567745492    2.98561697789777
O          -0.49208366235935    0.84150428058607   -3.49718127551172
H          -0.95278579768844    0.15479248957597   -2.98738851526334
H           0.43159157048163    0.79102033041184   -3.23133020552718
O          -0.82431281670919   -1.19427028819858    2.43679603205634
H          -1.02601628947665   -0.34933211502907    1.98747516253437
H          -1.06265361231817   -1.87661575312939    1.79781346908514
H           0.78445178381013   -1.08366070255164    2.59191244939583
O           1.57381441220406   -1.44725954053122   -0.05127772148844
H           1.25845693320796   -0.49082880476387   -0.43963651754910
H           1.77496644009986   -1.29089669671242    0.96474674041746
H           0.72555643897457   -1.99903204145572   -0.08203989597051
N           0.69589411955368    3.23953438439078    0.66850170303829
H           0.09551425104413    2.72983872472197    1.30698510293745
H           1.11186508900210    2.53996260291790    0.06482446309443
H           0.08115766861947    3.79591744235400    0.08522551097611
