    26
        -50.44586469  Gyration_radius:  2.48359824187 Dipole_moment: 6.907
 S           1.06139574032847    0.10421625913732   -0.72785297894560
O           0.10331969540005    1.08157930175010   -1.15450060733905
O           0.43628442094851   -1.18133784730191   -0.33982423051601
O           1.86774412984426    0.56999420537471    0.40714241728627
O           2.03033852511427   -0.20714822773051   -1.90000527817558
H           2.67738215642034   -0.82958899311672   -1.50343572745172
H           0.94523475542580    1.04666563405160    1.58268992404658
O          -3.11003330816464    0.16632637506445    0.78336327062943
H          -3.83489065636234    0.35589773313837    1.38181996513409
O           0.28154021730182    1.17923404784160    2.32076554252320
H           0.79439687991296    1.27166532815828    3.12642922623033
O           3.20695287461895   -1.70079437179851   -0.08715288720525
H           2.98523101896393   -0.88594162282839    0.39315109227706
H           2.45511076369781   -2.28958681910479    0.03280848609698
O          -1.62482460709419    2.27473783462517    0.48047199152529
H          -1.04175114886751    2.28895518860722    1.24893119052244
H          -1.05539588375183    1.98584279566123   -0.26034345401755
H          -2.66664413819622    1.03756823781662    0.56799545047730
O          -1.01951617700280   -0.93775572511645    1.62937576374694
H          -1.94208997019928   -0.58831266777836    1.27707178928805
H          -0.42215438831139   -1.12975885620281    0.75121243970562
H          -0.56343377656993   -0.13635507810520    2.04738861310377
N          -0.60052237657153   -0.99494524817272   -3.17450470983765
H          -0.42624661488725   -1.48549990314332   -2.30505221934785
H          -0.82264842360079   -0.04118178399258   -2.91204230070950
H           0.28522031160005   -0.95447579683850   -3.66590275901718
