    26
        -50.44586459  Gyration_radius:  2.48387174476 Dipole_moment: 6.909
 S           0.81995142979674   -0.99332806173745    0.09518790723391
O           1.40206696062101    0.01206381341837   -0.74455653238771
O          -0.64216111715993   -1.12954885606302   -0.10131470413567
O           1.05738096588774   -0.73767636119995    1.52106983162821
O           1.44559360350619   -2.37164546566080   -0.24908348303050
H           1.03794410189504   -2.97877161604781    0.40553357764415
H           0.58340330906618    0.70620480104609    1.91299369772883
O          -1.46101545856792    2.55256181700170   -1.29222100002081
H          -1.84958977949041    3.42839940461235   -1.25460561460338
O           0.11538718748435    1.57301547880815    2.09154125016518
H           0.06771970292595    1.65801772884101    3.04610176655733
O          -0.04094366445563   -3.17278541026512    1.76339844317648
H          -0.87735690631153   -2.95036057958492    1.34233851749402
H           0.33289950624568   -2.33094910949278    2.07223639359001
O           0.98792747617367    2.62284941152827   -0.42993393988266
H           1.29240634000560    1.72856883119809   -0.68273899988492
H          -0.48178103323018    2.65396467636488   -1.11188298435900
H           0.92056844425765    2.59796963121910    0.53210062390325
O          -1.85342051091211    0.90613774840998    0.56346632276092
H          -1.18817408329060    1.25585867125792    1.24141398544229
H          -1.80163598801108    1.56271751453309   -0.25042570461630
H          -1.40080728910270   -0.01582056221646    0.22787143231528
N           0.26180058333535   -1.65135373430113   -2.94021374395453
H          -0.42636279542927   -1.64446636650244   -2.19640423321480
H           0.83705635485223   -0.83016690325168   -2.78990663895768
H           0.86114265987855   -2.45145651185447   -2.77196617066755
