    26
        -50.45234091  Gyration_radius:  2.45888304274 Dipole_moment: 5.683
 S          -1.74086134698788    0.15060430826660    1.30748003136601
O          -2.38218028927161   -1.12605742091341    0.77369185888336
O          -2.52398214383711    0.71366071470908    2.34392753967840
O          -0.37311860955461   -0.31904014887496    1.87871242087752
O          -1.44724329611013    1.03761004141534    0.19226116157615
O           0.77568386843323   -0.11274189239031   -2.15160088088141
H           1.14787056623312   -0.31393330324618   -3.01102778558751
O           0.42295427939941    2.87676142540313    0.49701132760766
H           0.31705077494881    3.38053869388165    1.30491361676886
H          -0.36049666137596    2.28734821620053    0.43455050788709
O          -0.71696829439640    2.05163664113932   -2.19313711946818
H          -0.20856334813923    2.76228012240654   -1.78871656768556
H           0.20935438871248    0.69593422978138   -2.26408590298214
H          -1.27892092894180    1.70854866372146   -1.47867870115319
O           1.58400429597461    0.42358470643213    0.39918539142882
H           0.40445570779242   -0.05752537073457    1.27879773975968
H           1.39400019852610    0.16952101961530   -0.52319113100901
H           1.42893436199431    1.38724350489814    0.43685119781040
O          -0.64073262221187   -2.04021835193111   -0.79460149398659
H          -0.22792200939416   -1.34747537136151   -1.34140113441256
H           0.07105591460779   -2.35743702826879   -0.18035912767179
H          -1.72825435821484   -1.52463883511418    0.08505374819697
N           1.29972524290594   -2.61762265531419    0.98640204036628
H           1.75991858526888   -3.51307390524684    1.08762349296327
H           0.80482744002168   -2.41231877894735    1.84654300990588
H           2.00940827361684   -1.90318922552884    0.87379474975991
