    26
        -50.44586446  Gyration_radius:  2.48393187266 Dipole_moment: 6.909
 S           1.23040958285832   -0.39199366589748   -0.01679107180250
O           1.18079900793741    1.00260388157878   -0.34450840605366
O           0.09977702224385   -1.15735844811070   -0.59213198990625
O           1.23761349041555   -0.62643855387466    1.43230614742083
O           2.52897956156927   -1.00869381718591   -0.60231528160670
H           2.50739023380023   -1.93625822560078   -0.28213413210660
H           0.02690883610752    0.09894277650716    2.11867893064049
O          -2.59137396795430    1.73660390692838   -0.76639388584551
H          -3.40299974005416    2.20335404154258   -0.55927495035436
O          -0.85031795074079    0.46402088571687    2.43406891171323
H          -0.96916738005404    0.13628119005268    3.32801265380566
O           1.67571293147966   -3.15452731190978    0.64977234294027
H           1.50639441456255   -2.43554050149397    1.28081487925787
H           0.87176790997409   -3.24094689384883    0.12768651316209
O          -2.06135768624203   -0.45107293080628    0.34790908243715
H          -1.72681985585349   -0.10828707814366    1.23954998283747
H          -2.35712357342574    0.39716601576824   -0.18984038977410
H          -1.16090491310030   -0.80590299598141   -0.13272919829141
O          -0.62726013119842    2.68979719439169    0.64048136647082
H           0.13187661425883    2.24962393235373    0.20879146445746
H          -1.84141542312632    2.23798939142156   -0.33292837020384
H          -0.70137573141700    2.26449087977234    1.50320643366400
N           1.23508756157608   -0.00687748180286   -3.14957614878672
H           1.24908440165988    0.86288548080548   -2.62885034909466
H           2.17271703767511   -0.38761538437013   -3.08994908486045
H           0.63559775705469   -0.63224626780132   -2.62385544012730
