    26
        -50.45234086  Gyration_radius:  2.45890178164 Dipole_moment: 5.681
 S           0.89863435156133    1.17906286791303    1.60170794632542
O           1.74990839548010    0.75515190220907    0.37156865385285
O           1.00434412754642   -0.00562122443642    2.55646662824273
O           1.44778040758239    2.34702037420914    2.18376458242053
O          -0.47609099303562    1.29652464338960    1.14021980331701
O          -1.73693013360680   -1.34558049280134   -0.64549064680580
H          -2.34825487822270   -2.02804899687155   -0.92498379632803
O          -0.94418031547444    2.55422831558772   -1.13395198418270
H          -0.78025215326983    2.21132555028656   -0.22801618411964
H          -0.50280713962324    3.40297065786336   -1.18446082578521
O          -2.97321302871652    0.78719476708906    0.26944047858404
H          -2.92324301535678    1.46508875130220   -0.41251499618784
H          -2.28385719882301   -0.59513488403205   -0.29178088078056
H          -2.23831366109653    0.98576353093153    0.87310270447507
O           0.28344711352805    0.18783910553709   -1.65284668477768
H           1.17326131761390    0.49571411930437   -0.42415432394272
H          -0.40813600969481   -0.44044158269805   -1.37281808897567
H          -0.17154432873357    1.04768954732055   -1.74055340754344
O           0.25491777126756   -1.95261923639823    1.15087000228332
H          -0.52097179444591   -1.74161261559374    0.60068791867074
H           1.00815226876806   -2.07614055797553    0.51690026459276
H           0.66371114047734   -0.83260484582553    2.04605722137110
N           2.25952857542740   -1.99638009662214   -0.65207057969134
H           2.85815978401563   -1.28190868270649   -0.25453765918972
H           1.87634626969678   -1.61923662353944   -1.51097425643401
H           2.82960311713806   -2.80024428344182   -0.88163189938668
