    26
        -50.44586470  Gyration_radius:  2.4835496433 Dipole_moment: 6.910
 S           0.83878945670143    0.83295222378157    0.52090848706849
O           0.67926715265770    0.60586085476915   -0.93420304123421
O           0.86038401718428   -0.38637133220044    1.27443139411704
O          -0.23343299115991    1.73818463802821    0.95239451834530
O           2.18910969339885    1.57484079219426    0.71072651381131
H           2.06157979629543    2.41283446628405    0.21573457572865
H          -1.61937753497973    1.00322388474975    0.93136396640294
O          -2.46234214308281    0.49857967117230    0.73808692105212
H          -3.17581942527447    1.13662688585214    0.80536503548989
O          -1.27916160893148   -2.82895326804342   -0.81901728518107
H          -2.01134777552566   -3.43451490700072   -0.94825008028972
O           1.00003219802052    3.41087166139063   -0.74356988838588
H           0.30789215554725    3.12209561144394   -0.12603285758537
H           0.90876382906470    2.85077464103904   -1.52099175232221
O          -1.49491250307271   -0.41382980986264   -1.47204098731345
H          -0.51343155324383    0.01050688402636   -1.32441250243494
H          -1.38682799133166   -1.44423297921152   -1.31829790531271
H          -2.01658337020267   -0.07004063387731   -0.67543744440509
O          -1.26434658409907   -1.95058765589407    1.62473110315201
H          -1.91197941921050   -1.23579847860242    1.64320543140308
H          -1.21341703896794   -2.64723840214633    0.16313161871421
H          -0.39578786113852   -1.50165041410219    1.64709057710219
N           3.18431397813532   -1.02586676327950   -0.47978857357994
H           2.66727912901668   -1.39615359287191    0.30975396994902
H           2.49795973742432   -0.56514895249269   -1.06590429816811
H           3.78339664678430   -0.29696504514179   -0.10897747610372
