    26
        -50.44586464  Gyration_radius:  2.48368408456 Dipole_moment: 6.903
 S          -0.80429190818568    0.38244944968654   -0.93379018148359
O          -1.10574913913126   -0.97307228107121   -0.57756766140529
O           0.64846122471918    0.67160356888391   -0.91406061743931
O          -1.46505097142213    1.35254831877764   -0.05219267345760
O          -1.29246779732840    0.65074351951483   -2.38278474648366
H          -1.10146046302935    1.60417889251190   -2.51620893640242
H          -1.13611541662754    1.04773429749770    1.45147241878782
O          -0.74701425661170    0.86537316329290    2.35582890151246
H          -0.98756867058251    1.61450684356380    2.90501785471659
O           1.76571721913665   -2.00658504965170    1.77995193924353
H           2.12282847864817   -2.33014595598753    2.60898188151528
O          -0.48469090059348    3.09175435949066   -1.84405170492998
H           0.43861383427202    2.84656571982652   -1.72654669516995
H          -0.93820366698969    2.81426375934108   -1.03100707777785
O          -0.82919785587038   -1.96094035093944    1.87867857419585
H           0.77698331773897   -2.16057782250836    1.80173858731847
H          -1.05306077947861   -1.14426363706528    2.34083474975463
H          -1.03689047375609   -1.78228996168083    0.93988947550966
O           1.59303780244330    0.46132365147044    1.34845715386964
H           1.26839364594378    0.55206877628146    0.32280931174190
H           0.75270152069444    0.66531814268402    1.87481524558095
H           1.78333843613576   -0.55730041889465    1.50018889010745
N           0.65443522612971   -1.60827491039597   -2.89949835636550
H           1.08426293290758   -0.82635961255831   -2.41911145134641
H           0.05790636841286   -2.05757732625994   -2.21379043749332
H           0.03508227243803   -1.21304512581711   -3.59805445408941
