    26
        -50.45234080  Gyration_radius:  2.45877011296 Dipole_moment: 5.678
 S           1.41454165235061    1.32266530119764   -1.00569134874071
O           0.17761422283906    0.81897543695955   -1.58275544658612
O           1.17486482330289    1.45265367215194    0.52505277560662
O           2.49334418994495    0.25131122353534   -1.12596215331078
O           1.86995809545491    2.55845590726803   -1.52526472679287
O          -1.20703102085988   -1.94325572142231   -0.09694205028300
H          -1.61229415730393   -2.80720893585645   -0.01360540302666
O          -2.10635672150387    1.89805093615836   -0.81344133004691
H          -1.25331372239836    1.59642759337303   -1.19617323323931
H          -2.09015168573867    2.85547841035359   -0.84102313119265
O          -1.07118289856808    0.43811759528072    1.22910918887577
H          -1.13719448916648   -0.46246907189274    0.86032533448761
H           0.30138024403460    1.02204302789701    0.81601407306679
H          -1.65372352326362    0.98763426572042    0.66985897181512
O           1.52147557372404   -1.69301481371108    0.14029231081223
H           2.12950269916985   -0.59233868522576   -0.66079655377694
H           1.57158950136338   -1.39478928516973    1.08529187375023
H           0.57406625253704   -1.82510319388886   -0.04459176351369
O          -1.89900939182108   -0.72730536481157   -2.32328926154665
H          -2.54450993558402   -0.05050066779406   -2.09468138145401
H          -1.04877320085513   -0.25872105388875   -2.36145303126154
H          -1.49850931025512   -1.57059130749260   -0.97074426372069
N           1.49372382170335   -0.63911340424386    2.62220628557108
H           1.90518943736751   -1.05818533813383    3.44621947695757
H           0.52634090698634   -0.41599277642861    2.82512427888732
H           1.96845862654265    0.23677627007214    2.43692050867958
