    26
        -50.44586475  Gyration_radius:  2.48366443722 Dipole_moment: 6.911
 S           0.36268178133519   -1.10189230171261    0.56787517339606
O           1.33878222792691   -0.08925006955518    0.84495556348113
O          -0.18685965625209   -1.00916706142130   -0.80460852937839
O          -0.76653618019148   -1.06188277834602    1.50523424839265
O           1.02768420708721   -2.49937808964235    0.68811637443827
H           0.28190720696011   -3.12101372520750    0.54399368791486
H          -1.39784781931026    0.37376544856664    1.54988405130384
O           0.29690978288440    2.87048661771708   -1.40972782347600
H           0.03772299290703    3.78025913562395   -1.56664027017337
O          -1.81898734775129    1.26841254813576    1.39243329899651
H          -2.67405320940240    1.24006315181429    1.82688874856787
O          -1.42238876624791   -3.33263252473137    0.23673888901441
H          -1.47914027302547   -2.94433837775993   -0.64212611721183
H          -1.54018404823740   -2.59678918163678    0.85997592772856
O           0.75813166586072    2.49396091881961    1.11801464975007
H           0.62097016856238    2.81244385392445   -0.46445073816899
H          -0.10910847113891    2.35901168689519    1.51851675541242
H           1.16368544732787    1.60435272999152    1.09429576684760
O          -1.44306561973231    1.07810968178325   -1.15241215017184
H          -1.71509476377248    1.24448387675674   -0.19161044627256
H          -0.73667737455441    1.81697192687515   -1.38020270327998
H          -0.89227458719321    0.15142319273444   -1.09439062772692
N           2.74401134354950   -1.29102391888690   -1.49351001378918
H           2.86487691955943   -0.58294603079657   -0.77806814972093
H           2.92746377324518   -2.18124080837408   -1.04453318417299
H           1.75739061965498   -1.28218992159137   -1.72464238165002
