    26
        -50.44586472  Gyration_radius:  2.48359718863 Dipole_moment: 6.909
 S          -1.26187262936827    0.23499751611703   -0.14561179602509
O          -1.08435281772026   -0.74508808154404    0.88539950828621
O          -0.30640458208571    0.06969562996373   -1.26543363847742
O          -1.12711090837390    1.60738059885199    0.35810136983915
O          -2.68477990213515    0.09008749524793   -0.74897351686232
H          -2.73641583680176    0.82832842708070   -1.39371729043860
H           0.23357107658288    1.78637887563731    1.11830902473242
O           2.66905587316941   -1.64276756948535    0.69941099478049
H           3.54947298758030   -1.73253250045773    1.06860061859978
O           1.17913374250666    1.83931879643728    1.44347265969781
H           1.36257164345854    2.77160234833045    1.57721520451651
O          -1.95223331081199    2.20571993788338   -2.12331591018096
H          -1.23153533280278    1.76042048981863   -2.58011352561901
H          -1.62585652410655    2.38840707917571   -1.22673919465505
O           1.01459849297640   -0.81250772966906    2.52085261303837
H           2.04123352498436   -1.48413500292277    1.46263508570118
H           1.13889220850158    0.14327031119532    2.56250871500360
H           0.16274159105314   -0.93380390013070    2.05603536188429
O           2.01976097583273    0.43601287097524   -0.55085032918081
H           1.83519096899245    1.05200915922591    0.23105490527415
H           2.34805715790298   -0.46578065245113   -0.13135831444536
H           1.03448171864948    0.23644818044753   -0.94404167412239
N          -1.58562018357694   -2.66933806593906   -1.33591251503684
H          -2.54900262451804   -2.39085431846290   -1.48425198548814
H          -1.00888153812364   -1.92965637754742   -1.71953752675551
H          -1.43469577174225   -2.64361352776217   -0.33373886405564
