    26
        -50.45856954  Gyration_radius:  2.54489520475 Dipole_moment: 7.089
 S          -1.02632604251818   -1.02651794195363    0.01046466065233
O          -1.93255737328224   -0.57686375433300    1.15335998300046
O           0.36498532337585   -1.04515374347801    0.45855221513025
O          -1.15807969538263   -0.07673162330857   -1.11472113980920
O          -1.47297404590170   -2.35434240030230   -0.40437076418484
H          -0.98796412080670   -2.43722799852424   -1.81179276833025
H          -0.51320540604538    1.37171660978775   -0.81780892454393
O          -0.16374870079530    2.26446337895756   -0.56660307294116
H          -0.55262637844813    2.88744911649773   -1.18217828639611
O           0.78563969368088    1.74488772847783    3.36263144283998
H           1.18905336368811    2.55156479358329    3.68574240338321
O           1.85915526864849   -2.01430150908433   -1.46165018792575
H           1.38306596970083   -1.60261642280159   -0.69628938466506
H           2.35847949236976   -2.74380448229445   -1.09072789381342
O           1.87184521846592    1.11265733723677    1.01601706324189
H           1.31666812386199    1.46063501576143    2.58014003991410
H           1.42924126267212    0.25365691318380    0.88061763008415
H           1.42907722648452    1.71103345323348    0.40056121611361
O          -1.40047502471338    1.80190327024731    1.82502636775798
H          -1.74142078516518    0.39005405939218    1.45724849385187
H          -0.70546063897552    1.75669693325890    2.52164528819215
H          -0.95186718224845    2.13946533535266    1.02642324118885
N          -0.46973903435233   -2.02441463054352   -2.67742413710901
H           0.55415743703428   -2.12965216270669   -2.45532970601917
H          -0.71893989243995   -1.02557814263395   -2.51741644374862
H          -0.74598404890051   -2.38897912301313   -3.58211733585614
