    26
        -50.44586438  Gyration_radius:  2.48364067285 Dipole_moment: 6.902
 S          -0.65082717757059   -0.26781836022192    1.08165648026489
O          -0.19485686915951   -1.28841173774718    0.10947483172471
O          -1.23342341872607    0.87941602095972    0.44969219887232
O           0.49342141837038    0.08251042198322    1.93179320127211
O          -1.71577799149551   -0.95248089481924    1.97991792844931
H          -1.21829677176882   -1.68063250065779    2.41078596327012
H           1.54928241410543    0.91456851293654    1.12214396050097
O           2.22012379376990    1.30008633727316    0.48667809137460
H           3.05131785517774    1.33339205427259    0.96487709329613
O           0.52298336771009    1.09174615444749   -2.97349388377786
H           1.04455974542729    1.53283835920126   -3.64646309189358
O           0.30574715084718   -2.50563013966106    2.61353663137422
H           0.69368928342061   -1.61501581766804    2.60446559911381
H           0.42203313697028   -2.85178740372711    1.72293492118792
O           0.15066077030504    2.67332469705881   -0.94718896355144
H           0.95692598966449    2.60948091781362   -0.42130795837580
H           0.26691557829431    1.78215345964620   -2.29559466600930
H          -0.51556020518835    2.16107377049664   -0.44709374541909
O           1.62270636875084   -0.44342386193433   -1.31802508381324
H           1.16999919505847    0.10410117136365   -2.08752277492360
H           2.00097463022219    0.24339655797235   -0.67764745955110
H           0.81506255547157   -0.88573231396087   -0.75461478019291
N          -3.10247975680992   -1.13770450924806   -0.70494168716119
H          -3.52747751193702   -1.38430068742304    0.18174195663608
H          -2.94692111477258   -0.13635768281286   -0.67545080449291
H          -2.18078247615038   -1.55879252553360   -0.71035396820170
