    26
        -50.45856946  Gyration_radius:  2.54503369743 Dipole_moment: 7.101
 S           0.03427661460005   -0.06997522100873   -1.44812935740812
O           0.96998124699661   -0.55627501417996   -0.43579357817893
O           0.39204647500336    1.36143557763113   -1.83867078031153
O          -1.33458956119235   -0.09259497420092   -0.89063290523368
O           0.09038315053189   -0.88086588775845   -2.66234774845860
H          -0.80991619975333   -2.02174137820445   -2.33455352047981
H          -1.45568627135681    0.61253323380833    0.55490980923931
O          -1.49570158716178    1.11373453727166    1.40898991857055
H          -2.41917970374541    1.32619854159758    1.55199544855254
O           2.27122130605027    2.64062402108442    1.68895309942792
H           2.34924396943344    3.10488797654664    2.52336015687220
O           0.44629096255216   -3.07407425130253    0.05723487897465
H           1.26256501543538   -3.56136203221552   -0.06686246586053
H           0.69191648578784   -2.11827740834258   -0.03337103155305
O           1.10890043793757    0.28424027150615    2.11589245110966
H           1.18875070087617   -0.08215537818723    1.21505162693502
H           1.98471007158971    1.72107194837716    1.90658912448694
H           0.17432387176902    0.51302760448984    2.20026603321946
O           0.11379170336275    2.91694185838862    0.13501500987559
H           0.29240663201572    2.02549279604827   -1.05560875940720
H          -0.48859253135916    2.40671618822209    0.70919821221964
H           0.97793013397193    2.93757178627214    0.60742921005760
N          -1.47467734384456   -2.56251766146120   -1.66018777756745
H          -0.83384719970665   -3.03875379708206   -0.97350916370647
H          -2.15628418532155   -3.17314913822517   -2.09639012286190
H          -1.88026421446986   -1.73273420907783   -1.17882776851908
