    26
        -50.45856957  Gyration_radius:  2.54474125522 Dipole_moment: 7.098
 S           1.28293433598383   -0.21158787783822   -0.64499545997648
O           0.72970462114356   -0.73860809788097    0.60118087756431
O           2.00984160915892    1.10286839728476   -0.37395843352761
O           0.17940261860362    0.03269508538544   -1.59785760095585
O           2.25227122407473   -1.13362335867707   -1.23227690540529
H           1.38446978387557   -2.08486083213618   -1.98418759901498
H          -1.03966252840362    0.88277940757425   -0.97091160816077
O          -1.73279495763709    1.46292992320632   -0.56446387325013
H          -2.23586248679304    1.83015670213433   -1.29276249513226
O          -0.06984052971009    2.39987815077603    3.03518488018974
H          -0.69848194308042    2.92370909177640    3.53345021433265
O          -0.33328729009255   -3.08435519265235    0.12756985885643
H           0.06057014393883   -3.70301032137149    0.74506413292373
H           0.00622201841269   -2.19201062982371    0.39330131182296
O           0.38734019962272    2.86191389971376    0.44236323376433
H           1.37843996661055    1.84503316546821   -0.03573435899315
H          -0.46638429459420    2.50960007975171    0.12633773067411
H           0.35715372350645    2.79134337978990    1.42446523635365
O          -1.33075967078915    0.30668232485545    1.97948770406286
H          -1.78384413849487    0.68613788815467    1.21551238470027
H          -0.55708222014887   -0.15108187331560    1.60005388590304
H          -0.53306404681518    1.56177481469621    2.79429298201568
N           0.40938496028976   -2.44682259667485   -2.31025689055108
H           0.39409518047081   -2.98168089748014   -3.17133482259208
H          -0.06441583851782   -1.52064759042526   -2.36582723494940
H           0.01364957939514   -2.94921302230060   -1.47369717064949
