    26
        -50.45856940  Gyration_radius:  2.54504828751 Dipole_moment: 7.089
 S          -0.70296882704466   -1.26716013186073    0.07029971898425
O          -1.72612957488670   -1.01652092701126    1.17486420140582
O           0.62816158386569   -0.87380012391145    0.52846897141774
O          -1.06294264174937   -0.46095569313737   -1.11536152437812
O          -0.75695969564509   -2.68929855938787   -0.26018056061010
H          -0.23383964177226   -2.72039390871528   -1.65638786433783
H          -0.85011980975153    1.12483105590109   -0.90926109920616
O          -0.76711969045743    2.09302380393750   -0.71445447360883
H          -1.30001921456771    2.54489837536410   -1.37042586593204
O           0.19076615130529    2.09566745520035    3.24704263795623
H           0.34796579507494    3.00086436823427    3.51857407439094
O           2.37796471172220   -1.51013604705227   -1.31325315790915
H           1.78829792046884   -1.19929841660320   -0.57996761339295
H           3.04853061079475   -2.05035517516172   -0.89172093570037
O           1.46707368002023    1.64655504827863    0.95427801285435
H           0.79882928463440    1.92164053964858    2.48887253220900
H           1.28215727717061    0.69203100493596    0.87177976400763
H           0.89242016057513    2.06064341426747    0.29770374377112
O          -1.88756235409674    1.45289613256791    1.69342595292163
H          -1.52909851803856    1.85207111720230    0.87789927781162
H          -1.81677559220375   -0.01780840713811    1.41603656713478
H          -1.22488578616889    1.64384945477692    2.39675896829289
N           0.17232459944205   -2.23400616419750   -2.54324073220299
H           0.02913616332953   -2.71506018833470   -3.42408029460873
H           1.18004011997287   -2.03963016509949   -2.30751060539220
H          -0.34524669200540   -1.33454786270733   -2.45015967588940
