    26
        -50.45856958  Gyration_radius:  2.54478451585 Dipole_moment: 7.094
 S          -0.81438241161425   -1.09156766173333   -0.50242912965221
O          -2.13342307520865   -0.88747256144340    0.23778701990579
O           0.29605288034025   -1.07264257404910    0.44815048859182
O          -0.63252605747809    0.00325072004011   -1.47890438911279
O          -0.89893343461945   -2.37206841511804   -1.20076824923227
H           0.08678730824881   -2.20646166007390   -2.30701007988213
H          -0.33347887643934    1.43461492190028   -0.79775511737339
O          -0.21928378978962    2.30332203208544   -0.33460986984627
H          -0.41824001032051    2.98075617360406   -0.98251461967885
O          -0.77553744962613    1.27752234929539    3.56960668446604
H          -0.62873273431842    2.05335259034888    4.11217429060429
O           2.51370953497971   -1.62377281620113   -0.83052460702008
H           2.92659408060899   -2.36016259662779   -0.37620113624266
H           1.73581359512789   -1.36963483587186   -0.27154702286706
O           1.19070410724844    1.08330802294677    1.78563534575594
H           0.94596657531126    0.22350648627130    1.39462137945046
H           0.94274442643918    1.73193453909105    1.11428848812669
H           0.04383398638244    1.15270683285282    3.03293464673429
O          -2.20307165517078    1.39996267139569    1.31264868845345
H          -1.53155783780018    1.88499858418700    0.79623897880138
H          -2.19657821419574    0.03625362980244    0.69255154976403
H          -1.82508141125282    1.30410763707875    2.21720484030849
N           0.83550350787587   -1.63087110124658   -2.85143501132875
H           1.70483894401582   -1.68960770817015   -2.25997127099694
H           0.41904982434172   -0.68893303765148   -2.69426325928822
H           0.96922818691087   -1.87640221271009   -3.82590863843800
