    26
        -50.45856943  Gyration_radius:  2.54481979016 Dipole_moment: 7.086
 S          -0.57787335551718    0.98073367197529   -0.90086739250077
O          -0.51452929510844    0.92826503161580    0.55860974354623
O          -1.84065760123397    0.27680001689375   -1.39016626177642
O           0.60660734556032    0.29506932856426   -1.45997836347920
O          -0.63009923316529    2.35807807896134   -1.38520680649959
H           0.80784491929936    2.75349994412962   -1.40037159074657
H           0.85974619224124   -1.17262152980232   -0.84066983391687
O           0.93725019703317   -2.09252783265025   -0.48022575237412
H           1.49762876398084   -2.57333944881838   -1.09104468887542
O          -2.43915057096341   -2.41794423511846    1.77794066070722
H          -2.42640414257644   -3.26774696069422    2.22013148594361
O           1.54997410224223    2.32082985914321    1.36907745121981
H           1.22697074960542    2.96260648188064    2.00384886798114
H           0.77314196668246    1.74328108167168    1.15713239270836
O          -0.05018239231958   -1.27211983052633    2.03504107559125
H          -1.59990833603669   -1.96086442734267    2.02643362845860
H           0.48548602402147   -1.73081463929550    1.37510833384424
H          -0.25909497921177   -0.41223766309893    1.62372901265387
O          -1.77420499110748   -2.18091776904089   -0.80043452213959
H          -2.18137389466539   -2.27492622673074    0.09162470669427
H          -1.85041154088767   -0.72942696260973   -1.16353307779654
H          -0.81816080095205   -2.32981297209965   -0.67094682255595
N           1.86435896639224    2.54751796825471   -1.22924538239374
H           1.84158952439397    1.53296869970633   -1.46556154020549
H           1.98929091596365    2.62208764840537   -0.18631947342000
H           2.52216146634080    3.09356267663550   -1.77410585068181
