    26
        -50.45856959  Gyration_radius:  2.54478311192 Dipole_moment: 7.097
 S          -0.55442434052294    0.46078761112197    1.25974962112660
O          -0.51272428379906    1.08245866708839   -0.06264402016862
O           0.69424384274071    0.84176573538610    2.05040598796094
O          -0.59818544647105   -1.00828073916592    1.10116421983136
O          -1.71233806943196    0.91304720556522    2.02745415818562
H          -2.79885604844963    0.01719639328486    1.53797931888655
H           0.53072527349480   -1.58464318689151    0.10359895331645
O           1.28097711928254   -1.89945180777234   -0.46232487206670
H           1.38399647901758   -2.83367885038524   -0.27527014896207
O           3.37604517381582    1.53579233324085   -1.10486467926223
H           4.10390224331328    1.34159683233768   -1.69676616135528
O          -2.75801448277692    0.56934125417270   -1.30853767675124
H          -1.86542266578337    0.78089850142043   -0.93350666320988
H          -3.12459152734723    1.40987307282853   -1.58833543388841
O           2.76690902028431   -0.08127156634758    0.93473366680516
H           2.39670095131318   -0.79864929414452    0.38594680809455
H           3.08105803630384    0.60393210028010    0.30059103707908
H           1.56182007560822    0.48384022015374    1.62243665953885
O           1.15771860852551    0.42125171743505   -2.06525913263620
H           1.25357783618517   -0.50732439407912   -1.81730433293163
H           0.52342757756111    0.78134310869530   -1.41714843137569
H           2.55381286487052    1.24517001838538   -1.56802806000801
N          -3.17126977401045   -0.78682824945737    0.90297636066320
H          -3.27792216921734   -0.35166852192361   -0.05000933206875
H          -3.99167775719314   -1.27954436662081    1.23753213899294
H          -2.29948853731175   -1.35695380460300    0.88543001420514
