    26
        -50.45856953  Gyration_radius:  2.5449259803 Dipole_moment: 7.098
 S          -0.15345937063816    1.16380718263906   -0.85357278438573
O           0.57345870233225   -0.08932278544445   -1.04947925440318
O           0.75436155243632    2.18910598929105   -0.17951534368332
O          -1.32535960887910    0.91115419042236    0.01139885397812
O          -0.58799081953569    1.73482316073526   -2.12623000824578
H          -1.85868184382428    1.00216950994667   -2.39603761923532
H          -0.97087426494155    0.10110838257414    1.36067895107102
O          -0.69606980490123   -0.33770360659375    2.20575029607281
H          -1.41033728030990   -0.19228862650607    2.82786142241134
O           3.36493627446638   -0.37694463101949    1.87431338986475
H           3.72733340080718   -0.83806610914539    2.63187091641293
O          -0.94690386575922   -1.75049985162414   -2.38559741498502
H          -0.31740620677387   -1.20785313158367   -1.84582041479506
H          -0.44613218007037   -2.03829382266697   -3.15077965824038
O           1.33585337553505   -1.79091286839200    0.88968639508662
H           0.61213459668509   -1.58759546872222    1.49615795824694
H           1.15081897139506   -1.24801811508491    0.10030542407198
H           2.72744750069422   -0.99854026123021    1.44735806483934
O           1.39905674579322    1.41499822968170    2.13964125318977
H           0.69789819013603    0.76506110329350    2.33659261303182
H           2.22843830902782    0.89172133593343    2.04682991203953
H           1.04032063562375    1.90507923240209    0.76987055819408
N          -2.61658934058362    0.26244506155316   -2.13846433691847
H          -2.55999778120781    0.36884179141241   -1.10368464591279
H          -2.18195649834397   -0.66584616708254   -2.38044468281513
H          -3.54029936916344    0.41157026520737   -2.52868984489298
