    26
        -50.45856961  Gyration_radius:  2.54477164954 Dipole_moment: 7.097
 S          -0.92311969046279   -1.05613709939319   -0.37189180330574
O          -2.17989481230368   -0.68704706958149    0.41149240288882
O           0.23520113579325   -1.05598503295866    0.51990681067859
O          -0.70851542260923   -0.05862817564700   -1.44157529739524
O          -1.14616943138084   -2.37522127572146   -0.95903205206287
H          -0.21224225733481   -2.37754459523554   -2.12117787302862
H          -0.26236592781867    1.39176824814410   -0.89460065434604
O          -0.05579968435193    2.28146661429762   -0.50991378134254
H          -0.23588302588947    2.92067852841056   -1.20079229477113
O          -0.47808210415576    1.60960475521347    3.48603329211966
H          -0.24188346241843    2.41082393663239    3.95517523938869
O           2.32937499160613   -1.88656511278805   -0.81464433321280
H           2.70681355364822   -2.61741566742184   -0.32217818430158
H           1.60554788900577   -1.52630354634695   -0.24154954489329
O           1.36734507094910    1.11607007966696    1.63219591374459
H           1.03514743050207    0.25167252297626    1.32467351216245
H           1.13495079908958    1.72916975367442    0.92297585644129
H           0.29863171542002    1.37613872833629    2.92279878557362
O          -2.01241368997071    1.67486039553308    1.29808592173184
H          -1.59438106154609    1.61825890646345    2.18825514555209
H          -1.33401352558308    2.06153194444456    0.71233704128023
H          -2.14598064344311    0.27123419160875    0.79162825090431
N           0.54887467511864   -1.90992125315455   -2.74588244414255
H           1.44164193760698   -1.99489051416047   -2.19377327124946
H           0.21740572256438   -0.92732280748011   -2.64617286457657
H           0.60980981796512   -2.24029645551482   -3.70237377383533
