    26
        -50.45856951  Gyration_radius:  2.54482148429 Dipole_moment: 7.089
 S          -1.00413755892734   -0.76090555975447   -0.72124294833216
O          -2.30707012508351   -0.25477136987674   -0.10821665625939
O          -0.07427847291026   -1.14682930701578    0.33863372954623
O          -0.39596925116600    0.31929085191475   -1.52673061880428
O          -1.33727236872452   -1.89492876701908   -1.58021653998242
H          -0.19983169816848   -1.91983613732695   -2.54384750248794
H           0.18109816734759    1.53925061759444   -0.64315301169421
O           0.46094718263834    2.29392489680940   -0.06488977917422
H           0.54227406815279    3.05625631102042   -0.63986414192808
O          -0.87719480539158    1.11392102798777    3.59908325020060
H          -0.60117744667652    1.76429856259251    4.24614118287287
O           2.06221956236765   -2.19855188948910   -0.75146966867752
H           2.18795947763860   -3.06107939244914   -0.35223286901381
H           1.31443313752979   -1.78187260738696   -0.25239759552627
O           1.18582356264434    0.53299462494772    2.02023700536453
H           1.21668806963093    1.28421908910650    1.41393383638296
H          -0.05720568012011    0.81096755054542    3.13990398065235
H           0.77099477298911   -0.18141426048283    1.50097505624765
O          -1.89750640535663    1.84525685168577    1.23889369910142
H          -2.17793675634699    0.60091218929833    0.45300786438580
H          -1.68595938848207    1.56210010891653    2.15837385402817
H          -1.05591326798667    2.16427406524377    0.86089903133179
N           0.74616968955970   -1.53675079110651   -2.92679223186792
H           1.47474187558098   -1.89688322832254   -2.25720826332739
H           0.58561360260280   -0.53321068750709   -2.69757785286287
H           0.94249002665798   -1.72063276990914   -3.90424279017327
