    26
        -50.46357509  Gyration_radius:  2.6394270194 Dipole_moment: 1.777
 S          -0.80111821407902    0.39007752524370    1.51881177727545
O           0.15435158592488    1.48651140182017    1.62656826434170
O          -0.12757973148545   -0.87522383231443    1.28391132108147
O          -1.81894465299497    0.67310107789070    0.50496779979513
O          -1.54038189770083    0.25348385338967    2.88926594559543
H          -2.16776981427853    1.00433216596075    2.90953867026452
H          -1.11903852710560    0.66165342061790   -0.96244518374353
O           2.06081947278025   -2.27037439508750   -1.82829384061243
H           2.13433791605093   -2.90601718049471   -2.54054292425856
O          -0.70616456877221    0.61092849924802   -1.85873318302123
H          -1.15147302134192    1.27180388060175   -2.39156845925408
O          -3.28285065360052    2.11077467077687    2.15349325380327
H          -2.85036353286961    1.75880142349106    1.34972352089290
H          -4.19275419475257    1.80575635593523    2.12895491033849
O           2.02721523451870    0.39222666666329   -1.88994371322076
H           2.22955745612654    0.37455919386079   -0.37667837060392
H           2.14744150303647   -0.57110534194366   -2.04478222640931
H           1.06721262647401    0.54872497731771   -1.97391019903269
O          -0.47122755346850   -2.10348586336020   -1.08240299379871
H           1.12263325633680   -2.32051533556439   -1.51182385532384
H          -0.44209415792800   -1.80297464864687   -0.15418453254388
H          -0.75225734101665   -1.32561206187573   -1.58186133262339
N           2.18803875236939    0.24223277831554    0.69802381993127
H           3.10485477735100    0.25946931179491    1.13055564496454
H           1.67388820875257   -0.63080924980657    0.89530201201657
H           1.51366708161846    0.96168071612951    1.10805388414111
