    26
        -50.45234083  Gyration_radius:  2.45878153096 Dipole_moment: 5.679
 S           1.83911253621828    0.24342458386170    1.14916691139249
O           0.57160223971614    1.06452309156943    1.51876975142243
O           1.66656579684104   -1.07118050102880    1.90298871414970
O           1.76896131006992   -0.01584744193823   -0.28075512620710
O           2.99781956464705    0.92867359372150    1.58780594191977
O          -1.17973668663235   -1.29426042362432   -1.47514424768599
H          -1.77745611221881   -1.86082834789121   -1.96434265059455
O           1.11225506673626    1.96899582221591   -1.89366041558754
H           1.61629608351205    2.76558724835620   -1.72319502659575
H           1.48746928910857    1.27450394626794   -1.30875376094270
O          -1.06445000212416    1.23117050840659   -0.44721916884835
H          -1.22209522004920    0.33568025543030   -0.80025695413769
H          -0.09697749330628    1.10561244281735    0.75433538598991
H          -0.46630043865340    1.65874381489424   -1.09024561434601
O           1.11165506105331   -0.95208570242662   -2.71860923704446
H           1.10177722619801   -0.07052327076751   -3.10559267020376
H           1.58305250539357   -0.84930523959745   -1.87530103500586
H          -0.33720749330996   -1.24227304255815   -1.99943584231800
O          -0.59208356824424   -1.88028779579915    1.14673594011026
H           0.77062136905583   -1.47605555263384    1.59645183795282
H          -1.21794471412134   -1.25325114505045    1.59354526424256
H          -0.73356077349466   -1.75740848099041    0.19062045317943
N          -2.13952301788460    0.04870692325468    2.22179513798586
H          -1.43393721637019    0.55982486412902    2.73924874804775
H          -2.93497816179339   -0.10222919182279    2.82870212410190
H          -2.43093717034085    0.64008904121958    1.45234554903336
