    26
        -50.45856957  Gyration_radius:  2.54452880622 Dipole_moment: 7.092
 S           0.18494039241042   -0.70496761249703   -1.25645047856138
O           0.82689806676826   -0.86716816539512    0.04677647399338
O           0.96060062286636    0.30864079617691   -2.09335088688016
O          -1.19496164731180   -0.21347255053872   -1.05649791830128
O           0.16245024853766   -1.96120257910512   -2.00204660876901
H          -1.04540079599369   -2.64367459929219   -1.45479266618054
H          -1.29047790457602    1.06639920416793   -0.07925131532930
O           2.68574711860585    2.60990342817045    0.96697716283823
H           2.78734608788950    3.36924547408927    1.54225732241207
O          -1.29365609317220    1.88988091615798    0.47225999295653
H          -2.13440520171983    2.31947190944328    0.30782258587566
O          -0.41373813289554   -2.75329137547840    1.37432191170652
H           0.09111599501004   -2.00442884587864    0.96658142141063
H           0.24825393716636   -3.39168105200649    1.64512171856473
O           0.87853980857313    0.96238767219747    2.01824987519660
H           2.13370499020745    1.95682923211291    1.46080368696179
H           0.03957673764664    1.38362407443407    1.79093375795355
H           0.96370493177414    0.23037242241940    1.37873390479453
O           0.88966551888375    2.59323532904615   -1.01262810557473
H           0.10601119680604    2.51769424744990   -0.43561736868294
H           1.66316954818928    2.64822782232895   -0.40509495947576
H           0.95626604421175    1.25391173394149   -1.68058361158903
N          -1.90576895496265   -2.68913687310851   -0.78714528172255
H          -2.12201217815438   -1.66985292399797   -0.78007936663615
H          -1.50469068271284   -2.92904631929698    0.15634030176177
H          -2.67287965404902   -3.28190136554412   -1.08364155872495
