    26
        -50.46357505  Gyration_radius:  2.63940933105 Dipole_moment: 1.778
 S           0.88816355940853   -1.39791889912081   -0.59829314413532
O           0.58526937825386   -0.24254847220550   -1.42483507082585
O          -0.31528887519213   -2.16557820719416   -0.29979343461832
O           1.59949928375366   -1.03143532388576    0.62793493235115
O           1.84780145463799   -2.30491339830492   -1.43485944611443
H           2.22236568604777   -2.93532310955670   -0.78674318993695
H           0.70459043881441    0.04462767770454    1.45532253722829
O          -1.57554532706411    3.11651351865940   -0.74055041857540
H          -1.57495996098632    4.06917631818532   -0.64457540599729
O           0.18444544586264    0.73203049253883    1.93831360896531
H           0.32346866214118    0.56026147905006    2.87111963829434
O           2.82596462681557   -3.35436531680314    0.79423652144943
H           3.76864079691110   -3.21551323535395    0.91119959447745
H           2.39078608179207   -2.50729524462739    1.01799511976122
O           0.88308954677327    2.21347679576788   -0.37352614972264
H           0.91879940648050    1.37071128582329   -0.86463267956801
H          -0.62527195206961    2.83654158683659   -0.70254833210325
H           0.83944721204099    1.95257402355670    0.55574948850670
O          -2.33239561054973    1.21276474424338    0.96157982527129
H          -2.27162020704047    0.22603412791769   -0.20196051068622
H          -1.48703255160643    1.05020557297943    1.42212552997775
H          -2.18941562941545    2.03302853669559    0.43894196535364
N          -2.01898310699592   -0.40765871652697   -1.04388391907908
H          -1.52707567627761   -1.28328894694262   -0.68087092493758
H          -1.24712029967758    0.03954670859385   -1.56322837735067
H          -2.81762239288525   -0.61165400802429   -1.63421776804023
