    26
        -50.46357506  Gyration_radius:  2.63949313164 Dipole_moment: 1.777
 S          -0.39862275538220   -1.47857515696247   -0.86955912525341
O          -1.40690093593626   -0.55802185697963   -0.37367818108997
O           0.25981668577100   -2.18255909109859    0.22472409030400
O           0.57816461743118   -0.81656317773714   -1.73647238575038
O          -1.15059006787195   -2.53409583545782   -1.74351625049870
H          -0.44553185806553   -2.98492667174354   -2.25090575068786
H           1.27129954955130    0.40341985554532   -0.91506712445629
O           1.66203522592648    1.17311833669389   -0.43421234882552
H           2.57361982372131    1.23009722514133   -0.72527006445446
O          -1.16716322058841    2.81597292008042    1.85819666771082
H          -1.29351765841822    3.76403257608317    1.90111375005545
O           1.06885586552340   -3.00499267583907   -3.11435466304919
H           0.99512768844088   -2.82001281117937   -4.05342602054227
H           1.16085387764265   -2.13969875111998   -2.66744760015562
O          -1.00966780920614    2.08313177543669   -0.67819096786378
H          -1.29371566775762    1.14938320023764   -0.68983646746588
H          -1.22187232775072    2.57529569538449    0.89804774790252
H          -0.05100197125467    2.04788646479612   -0.79331986631872
O           1.02579625715992    1.35005750193573    2.22737211458376
H           0.31318062557275    2.02719643584110    2.21655120398098
H           0.12520358683898    0.11840850019232    2.28520164531844
H           1.36705997655465    1.32061720544706    1.31313727970447
N          -0.57874827818246   -0.68988164944764    2.12608579662281
H          -0.10969841488349   -1.44384914660842    1.53295998206121
H          -1.30464102444960   -0.36024397384411    1.47027123612124
H          -0.96934182039148   -1.04519688480338    2.99159531205072
