    26
        -50.46357510  Gyration_radius:  2.63948298393 Dipole_moment: 1.778
 S           1.24809562458463   -1.23528582907684   -0.13142446651117
O           1.12582564513077   -0.13361607828498   -1.07015146862957
O           0.15269531223208   -2.18572998827936   -0.28460526099583
O           1.35834129327339   -0.77379592708158    1.25378538472383
O           2.58229895414435   -1.97135324117345   -0.48006157394774
H           2.76198519249641   -2.54139808343260    0.29491944007321
H           0.06193447705451    0.14023447492974    1.61039748591664
O          -1.60288562983095    2.83775225595723   -1.45741066738046
H          -1.78149420869808    3.77758569404208   -1.41865278864594
O          -0.70160867021938    0.73270531284972    1.81617588617046
H          -0.91513320027397    0.57655370859934    2.73758226781011
O           2.75305705703235   -2.87541711861739    2.00594809100985
H           2.14405651727043   -2.10987935814320    1.99790171668759
H           3.54246734621157   -2.59062330353144    2.47203187116206
O           0.61915385506996    2.32811667519411   -0.11664673505270
H           0.96932381575030    1.50637397858142   -0.51020242637702
H          -0.71357104854929    2.71019051684963   -1.03827349153051
H           0.25365492969840    2.05430651288130    0.73480890385972
O          -2.67451755044205    0.82114818202343   -0.08652525790678
H          -2.46156159073516    1.65906894204974   -0.55452758351829
H          -2.01635285407088   -0.13213770617522   -1.08121934098354
H          -2.06382989405980    0.78881891119022    0.67447742781449
N          -1.36274322745415   -0.70992654358587   -1.72397934336736
H          -1.82563067970169   -1.02989017783162   -2.56738582032832
H          -0.92950727529190   -1.50151143167347   -1.15302640584390
H          -0.52405419061505   -0.14229036827680   -1.92393584420287
