    26
        -50.46357508  Gyration_radius:  2.63948903191 Dipole_moment: 1.777
 S           0.36033800338100   -1.70938586601795    0.22074585452506
O           1.06633744134206   -0.87000385063409   -0.73153613574220
O          -1.01336725920591   -1.95240174699449   -0.20418482257159
O           0.40545684989106   -1.16546252166014    1.57943587855054
O           1.11035130988406   -3.08054488998688    0.24754120581233
H           0.77722101802258   -3.53085208719788    1.05005308399376
H          -0.21784594000594    0.33605704525369    1.56719650844071
O           0.57142357080661    2.98790576241400   -1.86841919000497
H           0.93412799483489    3.87374665456766   -1.89163769588082
O          -0.55455619285194    1.26495885346792    1.55539076610833
H          -1.01132989677819    1.39009446072887    2.38883054649489
O           0.21989273954899   -3.53898636516041    2.70192055530699
H           0.14873728685410   -2.57994619757943    2.52277544672030
H           0.91413746997584   -3.64293439990241    3.35673875086310
O           1.80203812923591    1.60393398187942    0.01988357738645
H           1.17407306743466    1.69997781394162    0.74785810892659
H           1.71904408510755    0.67120919751172   -0.25558903215057
H           1.13082041848585    2.47932374006945   -1.22712210616473
O          -1.69385771077728    2.07873451749035   -0.80236906177783
H          -1.47113548902722    0.78044575303587   -1.57436102693909
H          -1.38049733809310    1.84943320376925    0.09342436480170
H          -0.96232362830621    2.59455971609400   -1.20884732309495
N          -1.12155844280076   -0.14652529052025   -2.01339878120185
H          -0.08953912857332   -0.14343555641689   -1.99261514584293
H          -1.49102801893575   -0.30278480039864   -2.94453025594063
H          -1.32696033943952   -0.94711712775145   -1.33718406062569
