    26
        -50.46357510  Gyration_radius:  2.63955253762 Dipole_moment: 1.776
 S           0.78288625631153   -1.51250054469759   -0.44764685285280
O           1.49454732816590   -0.24884743473337   -0.36588867677936
O          -0.12884867444360   -1.53420467796496   -1.58561544295586
O           0.08335041492386   -1.83633550999952    0.79728111902232
O           1.86444666576895   -2.61880060674688   -0.67046514937229
H           1.40187961732858   -3.46057290224714   -0.48259499006763
H          -0.93969659412775   -0.62567301048752    1.15878148824008
O          -1.52894273941823    0.12827388075090    1.40527861895879
H          -2.29898811947595   -0.26404674259072    1.82008440277727
O           0.25877082868129    3.54336148341911    0.35630964048568
H           0.28041809678481    4.29978955075248    0.94288675643954
O           0.25474349099685   -4.43277774632155    0.39924647278582
H          -0.05122272330430   -3.54685361373785    0.67933028702375
H           0.61168553283273   -4.85782427060563    1.18250486975748
O           0.99004030418041    1.38901405625726    1.70496760730570
H           1.34217385221799    0.77613035399122    1.03184338669463
H           0.64046444711498    2.78666142129752    0.87062428419568
H           0.12622703136103    1.02457871230981    1.93855979149241
O          -1.79977623909756    2.08461149293600   -0.49719125839152
H          -1.82511350435172    1.40135066994134    0.19970288101938
H          -1.18296148352264    2.77333418459364   -0.16293490527313
H          -0.86312819296904    1.46827830075008   -1.53331261077172
N          -0.07845676906324    0.97304731541452   -2.09313859247194
H           0.78834621020585    1.00998874380286   -1.53369696196564
H           0.04231122452235    1.35832342361822   -3.02310840329887
H          -0.26515626158406   -0.07830653972590   -2.09180778200756
