    26
        -50.46357511  Gyration_radius:  2.63954680299 Dipole_moment: 1.778
 S           0.65233434903029   -1.55326611293467   -0.51327527295260
O           0.34028461429005   -0.48198654463267   -1.44326690217858
O          -0.56029331494136   -2.13668193242251    0.04867342024379
O           1.56996960258124   -1.12107619795297    0.54270112367580
O           1.38648369017123   -2.65951099137605   -1.33828499327306
H           1.79263876430144   -3.24316015835310   -0.66588006539314
H           0.91484142554218    0.14400759999493    1.32605231435199
O           0.54027320831883    0.94063371054371    1.77485679964124
H           0.80033488730234    0.87107270921109    2.69491431895618
O          -1.36684492221713    3.16004889283060   -0.94465223183404
H          -1.26163210465254    4.11093939370517   -0.98199695588219
O           2.58387216132664   -3.52919477510761    0.86111238694909
H           3.54222314646410   -3.48405365123371    0.82836305919395
H           2.26845549125870   -2.61732983061184    1.02231487045490
O           1.02230432289756    2.03566891720475   -0.79302155028330
H           1.09342007217081    1.89832030589448    0.16072750146393
H           0.90451222081071    1.14007263750406   -1.16279701147359
H          -0.45245678934104    2.78075487344161   -0.99758854513049
O          -2.03748367433614    1.57895556136940    1.09113260709940
H          -1.89731342861925    2.30698335742344    0.44551776259160
H          -2.24452206499606    0.45549726226250    0.07808223803485
H          -1.15203509984573    1.37972871067906    1.45094403804224
N          -2.18149469551178   -0.30197132045110   -0.69422331653979
H          -1.72693988198855   -1.17644750063404   -0.28316466402973
H          -1.45610555638729   -0.01348423754433   -1.36963931532290
H          -3.07482642362770   -0.48452067880239   -1.13760161638777
