    26
        -50.45234087  Gyration_radius:  2.45887373127 Dipole_moment: 5.680
 S           0.01108395482560    1.25438991790965    1.78588047272101
O          -1.29765307765935    0.68358334181085    2.32214540583870
O           0.95431349595888    0.02201914737932    1.69058035793844
O          -0.19851976397530    1.72827903930299    0.42644332338486
O           0.55381005467143    2.20380270673627    2.68503162480821
O          -1.11775631522068   -0.61580673337032   -1.90181905648058
H          -1.60135036430246   -1.02122441441410   -2.62250650957081
O           1.88976401120931    1.93565583618132   -1.17620801979840
H           1.14282169489689    1.98825327491223   -0.54023056080208
H           2.62237789969688    2.40036844308903   -0.77000152212083
O          -0.99040656360441    2.00040038075078   -2.13306939376992
H          -0.10254468986802    2.22145631831102   -2.43286333774218
H          -1.14259004099549    0.36590534211716   -2.05350340709598
H          -0.96260253761860    2.11006916236658   -1.16812196441671
O           1.35062434129977   -0.68998026700150   -0.73976159791193
H           1.72905984519615    0.14773154090541   -1.07010019278536
H           1.08813728209624   -0.28670081484030    0.73154584780520
H           0.48764740776423   -0.77498027941516   -1.18632470220058
O          -1.83678158170927   -1.15886230197172    0.69645802977458
H          -1.59466972570179   -0.05191044056694    1.66538883222124
H          -1.67289406209069   -0.90237502800757   -0.22905193223799
H          -1.15835796540111   -1.85149854778057    0.90757149579592
N           0.21743753043699   -2.82604918604468    1.21732812985238
H           0.63466530925431   -2.33822650888240    2.00146606541633
H           0.85831384604747   -2.73839177334776    0.43737267482164
H           0.13607003479312   -3.80590812613126    1.45634995655629
