    26
        -50.46357518  Gyration_radius:  2.63947377001 Dipole_moment: 1.777
 S          -0.11903071277431   -0.50134726660316   -1.68372796596102
O          -0.84533692656798   -1.66277905076337   -1.18351692630598
O           1.15025885918030   -0.33700372764989   -0.99687199498366
O          -0.94437670807943    0.70641347231524   -1.62018930814641
O           0.21836173027241   -0.75091071837056   -3.18945125981240
H          -0.62927756574469   -0.61746049546800   -3.66008237339583
H          -1.18480112316522    1.09926726255669   -0.06100887800903
O          -1.29539097211023    1.36646858893744    0.88382614885992
H          -2.17686804729995    1.73715134409503    0.95115172268264
O           2.08418611475661    0.54161213182285    2.84774667170939
H           2.47600256303510    1.16550429863297    3.45929970608753
O          -2.15996281065166    0.18296660636070   -3.89538433197836
H          -1.96143228867846    0.49864098313063   -2.99103276696645
H          -2.12337701558864    0.95339645493858   -4.46690690420364
O          -0.38913451388335   -0.44048935475443    2.73665652900918
H           0.48177543457741   -0.05514290813606    2.98057845463179
H          -0.80848347623466    0.21991772979665    2.15257057672986
H           0.12695472551813   -1.48046838420479    1.74515278608436
O           1.48983305026035    1.79970952172997    0.59852721215232
H           1.49568818457383    1.10629625460619   -0.08837517544489
H           0.55398799864994    1.99076572420472    0.74424377351030
H           1.97872427399118    1.02764864155612    1.99015958519912
N           0.55510743147126   -2.04284839447911    0.92376288522670
H          -0.16127382886920   -2.09826552665049    0.13374397507924
H           0.90687231215015   -2.94932091817783    1.21098478007565
H           1.28099331121485   -1.45972227943427    0.47814307818103
