    26
        -50.46357516  Gyration_radius:  2.63940404882 Dipole_moment: 1.777
 S           1.47919649827356   -0.73788756753447   -0.60625023054930
O           1.41220646215384    0.64129068533275   -0.15542747700370
O           0.75704810414946   -0.92087452641983   -1.85991634228761
O           1.01327842901824   -1.67827659302327    0.41479046743716
O           2.98896106318241   -1.04888522112743   -0.86540147429441
H           3.03486767146368   -2.02438630756519   -0.92935645956428
H          -0.50745829045757   -1.28776832635524    0.83689508436375
O          -1.41473405129489   -1.02629534271760    1.12815175867880
H          -1.87593480481079   -1.84464729211533    1.31928015519834
O          -1.66445357314912    2.96042034648164    1.10013696274766
H          -2.06592694153615    3.44478128299453    1.82192273960914
O           2.54394947707505   -3.63096964698619   -0.46389721615672
H           1.80658342717733   -3.12610265874023   -0.06598817937413
H           3.04311476006105   -4.00479732271561    0.26593888225775
O           0.04579194316437    1.20263196126302    2.09033108290628
H          -0.50276685421380    0.40732675760296    2.09920402658709
H           0.69204385729436    1.04825627519006    1.37531215733057
H          -0.95952223580510    2.39508949061931    1.50788532390547
O          -2.61079134529556    0.94287193992091   -0.35882403479536
H          -2.29581546243140    0.18644128037351    0.17200898692638
H          -2.46306630198314    1.73462473781070    0.20485653672162
H          -1.45399511731084    1.17305641974222   -1.32816270657882
N          -0.50682901896609    1.30365643313924   -1.83820944563286
H          -0.10907131364870    0.34204175489418   -2.07796742088014
H           0.18865831990458    1.62757881161460   -1.14764298422136
H          -0.57533470194867    1.92082265834029   -2.63967020333149
