    26
        -50.45038890  Gyration_radius:  2.64383002064 Dipole_moment: 6.847
 S          -1.13682075498764   -0.22370744344601   -1.14483512340012
O           0.24346734442302   -0.72453686487881   -1.60211601358850
O          -1.08356063830456    1.15217992593737   -0.77337302380610
O          -1.61826167837132   -1.11348051205516   -0.10548772946617
O          -1.98618150145045   -0.40539386036503   -2.40586849040874
H          -1.99899144039378   -1.42039440115242   -2.53808492685682
H          -0.90609551012728   -0.73947332480544    1.34263799241842
O           2.66971399695436    1.75700781416546    0.46162287740133
H           3.27450500016229    2.00939894988726   -0.23644314426018
O          -0.32521520886687   -0.59688491511415    2.12389664427733
H          -0.68255116609568   -1.13636718677426    2.83182454854382
O           0.46983439148127    2.01752790055963    2.76151831084571
H           0.09398555663004    1.14527903567731    2.56615678396312
H           1.42215665345351    1.92344862153807    2.67186154140916
O           1.77152642909046   -0.71172921134430    0.37274866882070
H           1.15438685732973   -0.74497006123146    1.12534032321674
H           0.93052959184667   -0.73796564564632   -0.80386127289229
H           2.17999613576699    0.19441857169468    0.40256852054679
O           0.45901196614105    3.14346464942026    0.26721028711778
H           0.23131347766996    3.02431182490702    1.20735337765929
H           1.86057060966992    2.33348419153491    0.34725191564082
H          -0.15412803157619    2.56696835805691   -0.21497161640198
N          -1.78060866327986   -2.95591644372421   -2.27529748369609
H          -2.45493124222834   -3.66182836959519   -2.53932406853671
H          -1.77395591614123   -2.84951010030134   -1.26549087395507
H          -0.85969627906269   -3.24533149380268   -2.57683802420906
