    26
        -50.45038889  Gyration_radius:  2.64370187976 Dipole_moment: 6.842
 S           0.57609563211668    1.25959612083786    0.85880973876124
O           1.02674499812906   -0.08930303485199    1.44391866176178
O          -0.84608688200746    1.33358764881587    0.78237685669368
O           1.26162800692638    1.45525694001751   -0.40434623882659
O           1.10961145481553    2.25888185359344    1.88903591315896
H           2.12520852863577    2.15636114973876    1.81358763839455
H           0.51404107002119    0.58701814439574   -1.60094675211318
O           0.14913901803843   -0.08176697878382   -2.22354107121457
H           0.55343426532435    0.08972604656470   -3.07621039364891
O          -2.06521951585915   -2.45424879119158    0.37356506903397
H          -2.21722533241613   -2.90738077903660    1.20318905702523
O          -2.60538642945345   -0.61390281165052   -2.18018757799696
H          -2.58643336137431   -1.54560934378166   -1.94489127507856
H          -1.67938640850660   -0.33064503473581   -2.23074999711167
O           0.43843226753247   -1.88488968983048   -0.18856905064458
H           0.80012910518774   -0.88535544421017    0.79240737732222
H          -0.48759149412826   -2.17075437395636    0.03434745071006
H           0.36661709290471   -1.39918158086200   -1.02957568589798
O          -3.15419339058738   -0.07610862093723    0.44660864184707
H          -3.22127835542507   -0.01162441584861   -0.52357003386671
H          -2.52154953960621   -1.56816547031688    0.45571106219198
H          -2.43036982385322    0.52237423006428    0.68887089652526
N           3.53806263053831    1.69754975131884    1.29492864737035
H           3.79336483239364    0.80261417365796    1.69065927884317
H           4.34761036792180    2.30359128294341    1.29113102307370
H           3.21460126267616    1.55237903808798    0.34344076365409
