    26
        -50.45038892  Gyration_radius:  2.64379904661 Dipole_moment: 6.844
 S          -1.26492172325696    0.92754357738184    0.43892646213757
O          -1.07817602009472    0.89704518629458   -1.08719946635167
O          -0.07946159139756    1.38048629375127    1.08965717212877
O          -1.72685129935440   -0.38022525130556    0.86337781570021
O          -2.39353452291706    1.94796493528529    0.61104311522793
H          -3.19308499997759    1.49425089168122    0.16099745173265
H          -0.45238634576081   -1.43500419172254    0.95231850982314
O           0.29835567200986   -2.05528520404249    0.81199540104378
H           0.01686815244710   -2.90619236616914    1.15348875499391
O           2.91263027288855    0.34608715525838   -1.35038701409719
H           3.12312118863067    1.00668806653699   -2.01072709840154
O           2.89679074970923   -1.20367356902017    1.44137848164176
H           3.30386764604779   -1.27091492178014    0.57331388708792
H           1.97759493715547   -1.49169371530937    1.33027629067721
O           2.64200584776823    1.48362354612688    0.99052500203288
H           2.84521511857656    0.83657273178177   -0.48145324068918
H           1.68683852371060    1.61859266110365    1.09190663905342
H           2.83420794046176    0.66208451210410    1.47840193443202
O           0.59956984743237   -0.86982931247906   -1.63343621025761
H           0.56381057474016   -1.45212850554751   -0.85370259212879
H          -0.37599700019167    0.16589225053205   -1.37341733437712
H           1.49004068356742   -0.42864788310299   -1.59632922376298
N          -4.07703219326507    0.40285557051189   -0.54809112939184
H          -3.91858270967046    0.40441832750282   -1.54693602579611
H          -5.06589113497200    0.29191467323979   -0.36752818223652
H          -3.56499761429249   -0.37242544862552   -0.13839940023419
