    26
        -50.45038892  Gyration_radius:  2.64359190338 Dipole_moment: 6.842
 S          -0.95021773171493   -0.84364266657026   -1.02042662097839
O           0.41082749242859   -1.23523574337769   -1.18811199193611
O          -1.11332466753876    0.67439898601671   -1.20472205667496
O          -1.53240131647430   -1.20836367594859    0.25697755430601
O          -1.81274041803784   -1.40618555126934   -2.15365147286523
H          -2.75935084113961   -1.11275588977358   -1.89788583125969
H          -0.47847756899403   -0.85733119932345    1.48608372391637
O           2.55438307255320    1.97053651204443   -0.12686166760601
H           2.72869014132591    2.57948002862054   -0.84486096793135
O           0.09977825655869   -0.46510338355785    2.17878081951024
H          -0.24629451487535   -0.76117687475233    3.02286995566823
O           2.88209479444381   -0.53761822652058    1.82304399920198
H           1.92487581256212   -0.62107158772049    1.95345576072811
H           3.06825482485114    0.40525188702417    1.81200368635249
O           3.01534730862205   -0.48326213266832   -0.90983409800256
H           2.76922622710572    1.05966919457402   -0.47943959139735
H           3.16188489700888   -0.80853910830165   -0.00283884308340
H           2.14636764023675   -0.83112217844471   -1.16423901549818
O           0.05725695861850    1.82111562319331    0.67942182211395
H          -0.63461310819578    1.20864986705794   -0.43334332752322
H           0.09214569441485    1.13117952054965    1.36581629276030
H           0.99785384897582    1.95124728880299    0.38398728589149
N          -3.95727980791606   -0.51323686946708   -1.07234762126374
H          -4.88646868737654   -0.91236951297845   -1.07943076855030
H          -4.02287510922266    0.48672305118314   -1.20859996032784
H          -3.51494318805107   -0.69123734838020   -0.17584704547400
