    26
        -50.43635120  Gyration_radius:  2.43690512589 Dipole_moment: 2.542
 S           0.65078117914527   -1.40849979963160   -0.89235836935915
O           1.28680643402119   -0.11994796270256   -0.85625064896385
O          -0.57429271571938   -1.63093584993839   -0.18621880458266
O           1.70865963340194   -2.36939491323561   -0.17818385388297
O           0.75505862548824   -2.16461830807106   -2.28057763631194
H           1.34712617715345   -2.91119053675690   -2.15598709773637
H           1.99400591923298   -1.93846852250743    0.67161631642817
O          -1.88336424372564    1.95195304922219   -0.65538135893655
H          -2.33301730140991    2.79666628763947   -0.70580534506314
O           0.12061678572841    0.68459037168861    2.59189194886829
H          -0.06111194453483    0.73946966889423    3.53113483900941
O           2.30116400677602   -0.73217091467832    1.78044891964212
H           2.64970811567425   -0.09452736690948    1.15081959157481
H           1.48803840502010   -0.31799895500737    2.13661385382105
O           0.55732370323400    2.21089263935758    0.30143037032642
H           0.91393874143891    1.46530580456979   -0.21246514315232
H          -0.96621756344620    2.14291591702342   -0.32259643667235
H           0.48239707765638    1.87249978942464    1.20762463914979
O          -2.06124829245399    0.02241276053676    1.32095794480092
H          -2.18815560289513    0.71982747725806    0.65418093658231
H          -1.67071606588912   -0.71606901744197    0.82263219180981
H          -0.73569494726331    0.40279793551516    2.15758987266262
N          -0.78005319259400   -0.28101240972111   -2.31761020468778
H          -0.27783420356634    0.12305589168694   -3.09615954482233
H          -1.23750256458239    0.46525611488810   -1.79873232823806
H          -1.48641614589812   -0.91280915106728   -2.66861464226559
