    26
        -50.45038888  Gyration_radius:  2.64364008883 Dipole_moment: 6.843
 S          -1.11224240699225   -0.43016977984308   -1.11093983453854
O          -1.55209485270315    0.80311174113973   -0.30445208582554
O          -0.83615581162400   -1.53220052074652   -0.24883862930845
O          -0.00856426287289   -0.03958214064046   -1.96714134645526
O          -2.34694541016757   -0.71822443321459   -1.96950123723345
H          -2.40959647046408    0.10347056528503   -2.57657095996290
H           1.40139328588335    0.00417430362495   -1.09872216756432
O           2.16364200492272    0.19063046117296   -0.50515736009009
H           2.91157521880514    0.38367228462211   -1.07369089213317
O           0.30658698797586    0.11673715127143    3.21218223491557
H          -0.41435888080258    0.29949014070772    3.81513150561560
O           2.61136701068535   -1.49159967372715    1.69535360708161
H           2.48061006533686   -0.99571175964382    0.87238529203105
H           2.51644089104546   -0.85410987603670    2.40838669532574
O           0.39766052425555    1.59405382053349    1.04010872028207
H           0.36049239882997    1.09823868452334    1.90131776530203
H           1.15874540816324    1.22398302836687    0.55828803953182
H          -0.76331413912563    1.17829368603676    0.28429492443220
O           0.04569921755810   -2.28892084704879    2.21629930542990
H           0.99464619496416   -2.37095245516363    2.00975263979172
H           0.16313216418328   -0.81758100034541    2.88574131899938
H          -0.38785821354610   -2.15826168349531    1.35853902189572
N          -2.04539243725469    1.46362082943722   -3.27854648051570
H          -1.04540519842254    1.33254516719478   -3.16054258196664
H          -2.33817558563556    2.24986571981947   -2.71391565346854
H          -2.25188769286781    1.65542659600223   -4.24976183159134
