    26
        -50.45038889  Gyration_radius:  2.64355815502 Dipole_moment: 6.839
 S          -0.85217361580606   -0.94605122589119   -1.01443548061747
O           0.37703834260295   -1.58122075210000   -0.66860245637213
O          -0.60276565273089    0.45143065665222   -1.60553700308449
O          -1.79356661262403   -0.81174719043366    0.08076153249332
O          -1.52450398069053   -1.67930153395157   -2.17856312015589
H          -2.40756780381651   -1.17522696682895   -2.29645538452655
H          -1.01044035935242   -0.27915810217257    1.44005271391722
O           2.90438065702949    1.40097554966900    0.15242728219601
H           3.38257338654483    1.72643855857785   -0.61060581257344
O          -0.53744486694682    0.20569193607258    2.15365430538764
H          -1.13391556303868    0.23717743039880    2.90406698121668
O           2.14923199001005   -0.41717507049167    2.66982193154808
H           2.55227794041308    0.43510603370062    2.48287310926966
H           1.19727880815812   -0.30211903165878    2.52536213802870
O           2.94228638138261   -1.21549023114124    0.17533131160921
H           2.78556526665338   -1.26942145197285    1.13578484527409
H           2.10197028023375   -1.47841983172679   -0.23152787841222
H           2.97441927270831    0.40403197922332    0.11719456707694
O           0.32585111377863    1.90853095337992    0.19680136909521
H          -0.20739833395548    1.10924217233480   -0.88365421983010
H           0.03052131674330    1.46172683051826    1.01016255775190
H           1.31272547454452    1.78890700074985    0.16985086365421
N          -3.59143082016339   -0.17166952389014   -2.03797260831197
H          -3.38316054259090    0.73775448800430   -2.42827821375254
H          -3.43272520741948   -0.13970815712669   -1.03554649112767
H          -4.55902686166790   -0.40030451989105   -2.22296683974129
