    26
        -50.43635101  Gyration_radius:  2.4369821304 Dipole_moment: 2.537
 S          -0.06049875563621   -1.72783112704762   -0.46387740429626
O           1.12100744066765   -0.91469847906607   -0.55748606920929
O          -1.28494932658254   -1.17189539109838    0.02657933043679
O           0.33500779950058   -2.84320252206685    0.60956580020604
O          -0.23989141802304   -2.77970879991756   -1.63490076275685
H          -0.10495632943250   -3.65331953383559   -1.25807782882344
H           0.73203823820782   -2.38594578790104    1.39868367226628
O          -0.63231303431991    2.35081452522936   -1.36365116918302
H          -0.60598579056713    3.26164107412043   -1.66033593121271
O           0.25385087612930    1.20217904192756    2.38509700241936
H           0.05546959326225    1.57707018306002    3.24439770588460
O           1.50942477090545   -1.21288001204599    2.29188154065062
H           0.98146895175645   -0.39472004981574    2.39990170318904
H           2.17189910167225   -0.99571230712994    1.62964716378447
O           1.54678597833545    1.70289912647197   -0.03231193466906
H           1.52855959717723    0.77205390257337   -0.31558275983560
H           0.23401145875077    2.18026270050202   -0.90689989196622
H           1.25048951657049    1.68545372862745    0.89140288313517
O          -1.87467321028256    1.30664079625288    0.87799212992554
H          -1.59531758518397    1.78405653875929    0.07717877419271
H          -1.86139699882330    0.37036619062300    0.61457436543016
H          -0.59701473513390    1.24127911802577    1.85975190892511
N          -0.64685080791555   -0.48498524723843   -2.32502892969773
H          -0.71666254990191    0.49377774073861   -2.05568436251733
H          -1.54415835354414   -0.79002951502138   -2.67593291953955
H           0.04465558241248   -0.57356588473394   -3.05688400673492
