    26
        -50.43635107  Gyration_radius:  2.43700434072 Dipole_moment: 2.533
 S          -1.70933887999111    0.12188252985833    0.51789205990835
O          -0.75483715738514    0.77483665499296    1.36141040034574
O          -1.27877945443958   -0.57271136466350   -0.66448337735040
O          -2.62066204605408    1.30416509076775   -0.05161360134073
O          -2.91046693759187   -0.56159960372326    1.29244458014392
H          -3.68183795129235   -0.00032968356687    1.17663107249201
H          -2.11970909833688    1.75646238884376   -0.78230352800731
O           2.06799206741000   -1.74580013719113    0.68278079629588
H           2.85065292530784   -2.29436009162174    0.61383577954059
O           1.59460918756346    1.70999074622070   -1.31446817538172
H           2.19111579818268    2.43310725702946   -1.51329827166496
O          -1.02370758984531    1.96876265662540   -2.01988436426865
H          -0.09292304170293    1.98193320772164   -1.71473776624041
H          -1.14259304415351    1.10184417004645   -2.41822099249021
O           1.91713510245770    0.97420506884416    1.16898523251097
H           2.11150968601465    0.02144418310840    1.12765437286200
H           1.73833777665853    1.48640416112032   -0.34967646689268
H           0.97615129726676    1.01550376570424    1.41198006019915
O           1.18221231455230   -1.02002527380084   -1.68957618246253
H           1.78119858418288   -1.54930938656856   -0.24861572197164
H           0.25028390598561   -0.98907425851697   -1.41097488578097
H           1.45078340124324   -0.09010078538301   -1.75630832862216
N          -0.80420216454756   -1.75066296412959    1.53148545304722
H          -1.23466960988982   -2.59780790488151    1.18709635086574
H          -0.93077642803085   -1.69584617939881    2.53262384511617
H           0.19252136643668   -1.78291426743923    1.32934167915046
