    26
        -50.43635100  Gyration_radius:  2.43688831481 Dipole_moment: 2.542
 S           1.21258939165522   -1.13177095123819   -0.67268766665546
O           1.60198693049135    0.24512502861820   -0.63521851253511
O          -0.07797455415854   -1.53616481059093   -0.18582893178689
O           2.23274980033787   -1.86641073993398    0.31352373258495
O           1.72254146437721   -1.92372750783877   -1.94663292441351
H           2.45629840682700   -2.47662752942765   -1.66498644992266
H           1.93719397446430   -1.69569156063800    1.24773151916550
O          -1.95221870123097    1.60589544323308   -1.18146629838816
H          -2.77297580490027    2.08050532912669   -1.32067209402348
O          -0.25150848792966    1.11476412558722    2.42745067980530
H          -0.14167907403907    1.69773930516795    3.18002229552219
O           0.92016899201232   -1.34248739425698    2.52061602257224
H           0.60412681436299   -0.41522567847509    2.51799084893073
H           0.17308727126178   -1.86048675638205    2.20757903578982
O           0.28411285200802    2.41945174355301    0.23110298489791
H          -0.50803373722934    2.31607379883563   -0.32479244481555
H          -0.00922487603432    1.65299273293389    1.61932946886665
H           0.91283645207346    1.76856811658141   -0.12571969217386
O          -2.15340053486800   -0.11441040882499    0.80334773538156
H          -2.12467600495092    0.95808596171004   -0.44732772109388
H          -1.51891221816281   -0.74278824612615    0.41649413659076
H          -1.66680458434214    0.31474737332843    1.52470446616449
N          -0.07388534657906   -0.36113938252700   -2.43314337617562
H          -0.70436791378407    0.35885986137126   -2.08743409482399
H          -0.62165191922360   -1.10742164081117   -2.83884765073898
H           0.51962141756481    0.04154377702361   -3.14513507872485
