    26
        -50.43635098  Gyration_radius:  2.4370029349 Dipole_moment: 2.539
 S          -1.32599409018779   -0.72359617333905   -0.96003831571764
O          -1.27162174021036   -0.73976134790865    0.47620655065596
O          -0.28342475855356   -0.10014518962452   -1.71721875334149
O          -2.62949973904503    0.14437211506901   -1.27634551353607
O          -1.92067807488483   -2.03555226817124   -1.61956941742360
H          -2.77686707618480   -1.80642651355193   -1.99084523385224
H          -2.58768205608968    0.97580741742540   -0.73204846468637
O           0.48899725672856    2.52972761440699    0.74748994582218
H           0.77280625415385    3.44496033728072    0.73949240682093
O           2.49873371241085   -0.95266291823928    0.79947009486185
H           3.28592023900441   -1.10212573520131    1.32510597696487
O          -2.17368182251364    2.00535169291354    0.51168863460829
H          -2.24661930409475    1.35596721119631    1.21694979942079
H          -1.22858019970111    2.26285322885451    0.50147622746922
O           1.95439293036703    1.15055763327534   -0.91504925473121
H           1.06065444133524    2.05407840842919    0.07787733444667
H           2.32295681157379    0.42235341347535   -0.38490199145127
H           1.21276520961374    0.74442869868318   -1.39599969909542
O           0.58348627823849    0.16604719903214    2.22112831729623
H          -0.13347765846142   -0.25745198876770    1.71746435697732
H           1.82038795216161   -0.56681597528267    1.41524675352189
H           0.58594035039431    1.08784963841869    1.91857527997488
N           0.30769820069001   -2.34029105662279   -0.69836965526984
H           0.59421399362744   -2.68753217873415   -1.60315358874166
H          -0.02385340266843   -3.11139737008827   -0.13526042320075
H           1.11302627229750   -1.92059589292080   -0.23937134778201
