    26
        -50.43635112  Gyration_radius:  2.43699949474 Dipole_moment: 2.541
 S           1.26973224608208   -0.61931791236415   -1.09900980680464
O           1.52624106435699   -0.14178738660613    0.23231124298431
O          -0.06284700226888   -0.62524543528431   -1.62153397788250
O           1.68396046178257   -2.16089506617503   -1.03099716052807
O           2.39010821244724   -0.26483571350330   -2.16145852908985
H           2.84063282856857   -1.08319260751373   -2.38673701619243
H           1.25419435242422   -2.56170212719698   -0.22847680892245
O          -1.76110778595909   -1.25845442714017    1.58379059015052
H          -2.53533686923170   -1.73013529764032    1.89427442307717
O          -1.19031981062656    2.50718031994831    0.29834461742826
H          -1.59968755209413    3.27362012860762    0.70243008906463
O           0.55762181969726   -2.65560764990603    1.28276799942375
H           1.14921297420142   -2.03153308264801    1.71286068007729
H          -0.32729797258904   -2.23756571033720    1.32729413952333
O          -0.10764549731115    0.92355423788121    2.10371704464601
H          -0.72814170582997    0.17931998933094    2.15279771570606
H           0.60153884714241    0.61550897922662    1.51268567313377
H          -0.77842984065086    1.98704568947253    1.03869950552785
O          -2.38756123253188    0.15099058750208   -0.52199606261456
H          -2.04763033907952   -0.75918940312203    0.76520144476138
H          -2.12509632120861    1.06254242923744   -0.30430173996666
H          -1.66535734109894   -0.17735947418043   -1.08486157445710
N           1.04480732028253    1.64774583862755   -1.49970272386151
H           1.87797139716098    2.15153534319238   -1.22840982035185
H           0.25770740345448    1.99921525556216   -0.95904145150528
H           0.86273033288723    1.80856249502803   -2.48064851333298
