    26
        -50.43635106  Gyration_radius:  2.43702780672 Dipole_moment: 2.540
 S          -0.62764473897589    0.71970888480238    1.51377298811780
O          -1.08658640133000    1.08712077544646    0.20205263573167
O           0.38543457688810   -0.27887973255060    1.67307106901058
O          -1.92531740679380    0.09210872290940    2.20300991376999
O          -0.53833604574456    1.91662747937289    2.54787575974110
H          -1.23750940380943    1.78912815912827    3.19466831490482
H          -2.32202258490960   -0.56728742412728    1.57284423442769
O           2.21608075801814    0.57752421673226   -1.59631412975366
H           2.77229963684135    0.68713733299822   -2.36891123460224
O          -0.56633305909176   -2.30288710024785   -1.25246594234122
H          -0.57891598063318   -3.22889386312006   -1.49877771731621
O          -2.69494741718445   -1.31539088727456    0.13055055615925
H          -1.92579290477832   -1.75592347422980   -0.28682732144782
H          -2.82620506451557   -0.51000154313005   -0.37795037960942
O          -0.31595609646540    0.28293194611898   -2.26093383315087
H          -0.47555375057546   -0.66482477828425   -2.12845114800571
H          -0.65222135381892    0.70575579084790   -1.45144212577422
H           1.28235907026283    0.51102797295415   -1.93104391089467
O           1.72743654563429   -1.72873262524378   -0.14692951827514
H           0.31782352157018   -2.14307127079814   -0.81176531203590
H           2.07951760405192   -0.98423611918102   -0.66553959600230
H           1.35684276135866   -1.31088358022243    0.64948035157775
N           1.20021256756186    1.97224610192266    0.85100490535804
H           1.63396006544973    1.52003865211488    0.04928225909951
H           1.87552205145755    2.02071330535164    1.60129752299359
H           0.92585302953520    2.90894305771339    0.58844163831263
