    26
        -50.45038889  Gyration_radius:  2.64381220753 Dipole_moment: 6.841
 S           0.03615402986389   -0.99712941250735   -1.28570864663812
O           1.18384880954778   -0.15046609882316   -1.28870811352285
O          -1.25890888767566   -0.16937045969908   -1.23873717549081
O          -0.00349963870611   -1.95958106799717   -0.20128049322394
O          -0.09159935492695   -1.73047826806369   -2.62390452405524
H          -0.90241407686835   -2.33916568180725   -2.48326672807470
H           0.41324880585144   -1.22532913400930    1.22393755259146
O           0.04734692115350    3.16886869228093    0.61924726456916
H          -0.34079725567090    3.83187420464821    0.04778187491165
O           0.48674500299408   -0.70675312000867    2.05688350582495
H           0.52703872209464   -1.34402272095070    2.77254294570140
O           2.26797456568777    1.45884185053887    2.15710294281969
H           1.73969222564462    0.64695204224228    2.11162584929872
H           1.64753514619685    2.17114974241090    2.33448715758028
O           2.23287174121131    2.22719433592181   -0.46901048880115
H           1.95473008947197    1.41262645346701   -0.91608380976499
H           0.88445694834260    2.86704556684282    0.16289058901683
H           2.60301283567696    1.93358522112450    0.38346496527790
O          -1.36909334950545    0.98330435804328    0.97335162645727
H          -0.89271055931396    1.84885809682587    0.86017239462533
H          -1.35514955130149    0.34153692456088   -0.32236151859620
H          -0.78813620812502    0.43627741376742    1.53162064316499
N          -2.09241486509645   -3.09008069885414   -1.77930864775874
H          -1.65276603570937   -3.06648171100139   -0.86430777500759
H          -2.35679968361416   -4.03947604496602   -2.00624591227027
H          -2.92036635723376   -2.50978047397281   -1.75618548864410
