    26
        -50.45825248  Gyration_radius:  2.5852923642 Dipole_moment: 3.131
 S          -1.15192220774034   -1.44042421024614   -1.37373051900714
O          -2.06658039565748   -0.45064673368466   -1.92951109682754
O          -1.10187756507240   -1.36745973672538    0.07831385863642
O           0.14914249384211   -1.41177479256887   -2.00459784594577
O          -1.77149462991737   -2.86728113516981   -1.69757807679314
H          -1.59428413900663   -2.99149192693569   -2.62537767341369
H           0.94780836959846   -0.07203448200229   -1.62240614871170
O           1.43724464628443    0.76053385410938   -1.40083136257906
H           2.00387519892622    0.93667954338259   -2.15378675977216
O           0.86185788052116    1.66677674415899    2.38614193202227
H           1.44485463992272    2.18184058318181    2.94482489313403
O           1.08652767346067   -2.43288804509977    1.16495968489506
H           0.77087981219143   -2.77207672024978    2.00420739953139
H           0.29674963758699   -2.09960837512785    0.69316265011878
O           2.37439066698466   -0.04533177755854    1.10139900151112
H           2.03478539070152   -0.95966005835457    1.16883525973949
H           2.19006948492630    0.22199481397137    0.18665351249066
H           1.43593374318481    0.96239357275773    1.97635639050101
O           0.00409395408808    2.58176098914488    0.05547906694054
H           0.56019391089962    2.05265620738098   -0.54678068431661
H          -1.27316598868097    1.79118011049173    0.09976757055518
H           0.34638167253573    2.37851771403338    0.96059361011739
N          -2.08256618165340    1.06160274975603    0.14653656767461
H          -1.72939523051766    0.21814547922108    0.63195870195075
H          -2.25186416187692    0.66135813757639   -0.82041580513284
H          -2.92163869560104    1.43523748455394    0.57582585264899
