    26
        -50.44365896  Gyration_radius:  2.44307157256 Dipole_moment: 2.825
 S           1.34521214713075   -0.00739963538058    1.60627331505561
O           2.05715288915967    0.37435097497143    0.40686150857692
O           0.93740081068857   -1.41233809215324    1.58884634293856
O           0.23646698943156    0.87038370667632    1.92567977287161
O           2.36093860305369    0.11744935188506    2.81215497745300
H           3.01810776016386   -0.53676466074272    2.59470280540880
H          -1.17450875731355    0.37784284110713    1.48002508143593
O          -2.04086782249543   -0.02885239996058    1.17787476565889
H          -2.55846813284858   -0.16153141924981    1.97419877372966
O          -0.82299308414153   -1.03168353784782   -2.29246601736772
H          -1.45444889057080   -1.40849076662405   -2.90671336363711
O           1.66597046596440   -1.77269245735791   -1.19980379727015
H           1.25683910674809   -1.40224694375751   -1.98654422135297
H           1.93820009073823   -1.01705277366884   -0.65669927296616
O          -1.77575503086515    1.17941875849842   -1.38483098899783
H          -0.97732574372597    1.73922234457154   -1.16844415112013
H          -1.17977506570768   -0.12592536771049   -2.02688732904139
H          -2.13932898805549    0.93120885765065   -0.52626849812864
O          -0.89663067164323   -2.03087823991790    0.04938424246469
H          -0.71913793526567   -1.73737777972362   -0.92733926276746
H          -0.00615296533728   -1.90508064864006    0.60137515526564
H          -1.49222485288719   -1.31802723924422    0.46065236633539
N           0.38156260468386    2.48324656340439   -0.54476787715735
H           0.12104987684035    2.89268835574052    0.34480118030630
H           0.87305287203238    3.18835698282132   -1.08009810154936
H           1.04566373422574    1.74217319464269   -0.32196740615087
