    26
        -50.45234084  Gyration_radius:  2.45876855007 Dipole_moment: 5.679
 S          -1.90438897474125    0.69821741168045    0.80432615579247
O          -1.55056885133756   -0.69328501294951    0.56906816607209
O          -1.29917387825978    1.14908287835102    2.12972478331906
O          -1.15138663329602    1.53930734559958   -0.26476695949298
O          -3.28870880371428    0.99117018786875    0.75566288272126
O           1.78902676872796   -1.40499771125586    0.25974433384343
H           2.62536747457706   -1.85319546862472    0.39124582846374
O          -1.57625759363749   -1.60259030152610   -1.90961156194761
H          -2.38280109346568   -1.38008564483209   -2.37611344551870
H          -1.70068956301502   -1.29976196651032   -0.98327130821838
O           0.50422628427909    0.11580146071220   -1.60685838169647
H           1.06361646776429   -0.38438832930251   -0.98378182023302
H          -0.12957444974489   -0.53663423380653   -1.96298702087371
H          -0.46880027016352    0.98793656588651   -0.77780563201218
O          -0.25702068047224   -3.04978452288478    0.40912428558187
H          -0.56478603374631   -3.21088780185649   -0.48882630294232
H           1.07581639653323   -2.08979799006643    0.35899654070989
H          -0.83246448673042   -2.34391424949772    0.74760981745387
O           1.16789236357443    0.79304257392830    1.79136864821531
H          -0.28474774879482    0.98249712139523    2.06737668622721
H           1.36680018833331   -0.04671881472522    1.33915706565152
H           1.41334506680163    1.50870297679762    1.14929867338126
N           1.62090019727296    2.62140560690853   -0.13796118617650
H           2.32082548748998    3.35146705874739   -0.10695604527495
H           0.70600784591460    3.05567277221153   -0.17381663196941
H           1.73754451983795    2.10173806774272   -0.99994756107970
