    26
        -50.45825250  Gyration_radius:  2.58521645722 Dipole_moment: 3.129
 S           1.36266146494823   -0.13494943082403   -1.84735751008926
O           0.84665472279659    1.04719433812711   -2.52672405305373
O           0.28824220203672   -1.01170345907374   -1.40790963505311
O           2.31187856056480    0.19172975028926   -0.80627694985154
O           2.16498916410886   -0.97206404435849   -2.93367679554909
H           2.97764333755535   -0.48748713951266   -3.04602773747760
H           1.58721273273026    0.91077264963102    0.43342978066191
O           1.14590128534478    1.36807240490554    1.19360463446015
H           1.81380332051887    1.93983796303458    1.57576032267475
O          -2.33883442346461   -0.31739790194990    1.90782437362859
H          -2.80884093171012   -0.32636785632693    2.74229536818215
O           0.96071604481061   -2.68923665134641    0.55129900506547
H           0.42189177616473   -3.46170865636303    0.37246741082927
H           0.80457478768762   -2.07208541114524   -0.19180202835234
O           0.15469096492667   -0.92083966289787    2.44513088823818
H           0.49202752416575   -1.63729429281366    1.87174680070751
H           0.59427136231884   -0.11710342621573    2.12417422802563
H          -1.41802755425546   -0.63794110365947    2.11486524325729
O          -1.50294532184256    1.93963946513963    0.80634574565952
H          -1.58558085768961    1.40403396141458   -0.59552662029847
H          -1.91019023171425    1.17901506397223    1.28925623430471
H          -0.54900234647235    1.87761791425584    1.00136135344075
N          -1.52215127314591    0.87760538710926   -1.54858507681354
H          -2.37336855936392    0.95298448268544   -2.09424416905607
H          -1.25785281543813   -0.10501020145126   -1.35793142965421
H          -0.66036494542366    1.20268585762382   -2.07349939375199
