    26
        -50.45028644  Gyration_radius:  2.64116303385 Dipole_moment: 5.322
 S          -0.28854420239967   -1.43868015461462   -0.57462642722173
O          -1.69473479577597   -0.87466281780254   -0.34792442858515
O           0.43642423633992   -1.55136529869225    0.64993022379634
O           0.36563926963965   -0.63600937751725   -1.59093214032261
O          -0.57656291680288   -2.83427049684181   -1.14174274755150
H          -1.05188738165621   -2.63371545106947   -2.02218582698498
H           0.85664620406098    0.85642165358125   -1.07518857525405
O           0.97172798219842    1.77896857069817   -0.75223503966389
H           1.40427817572411    2.26419311752426   -1.45685380086380
O          -0.63899439070916    1.51454986367918    2.86316794480856
H          -0.82574102656304    2.29590614965938    3.38561275076172
O           2.63482078479602   -0.82186582212833    2.03608208599966
H           1.90134006964658   -1.13120258762397    1.47478142263250
H           2.49046981726662   -1.22722767582046    2.89319597582458
O           1.81257915438823    1.75203372276441    1.93607921207043
H           2.23852127137378    0.87484486211953    2.02625834969933
H           1.63547638905934    1.84852067979227    0.98894394213899
H           0.31939462787037    1.57858438467252    2.60480333447710
O          -1.50921829966301    1.49778560664014    0.38707375351986
H          -0.68289926949082    1.78943107036408   -0.03846110785743
H          -1.66975688889458    0.13127678055853   -0.01344266733695
H          -1.30137905976638    1.46699855924442    1.36054239521933
N          -1.64539234206632   -1.81880948915100   -3.24144842802656
H          -0.95401629662419   -1.07913387140776   -3.16797755039990
H          -2.54950858897549   -1.44090532598919   -2.99116548878082
H          -1.67868250297073   -2.16166666263411   -4.19228717210971
