    26
        -50.45825250  Gyration_radius:  2.58523604748 Dipole_moment: 3.126
 S           0.70671679158930   -0.82916216180353   -2.02528628349681
O          -0.60272724082704   -1.26021512308785   -2.49934941379765
O           0.96918765031420   -1.30143119749714   -0.67463329779461
O           0.92176853215474    0.59035898043187   -2.19930445367356
O           1.78504250201922   -1.55703829894368   -2.93749322587385
H           1.75164761391433   -1.08001991584757   -3.76148614980935
H          -0.00932838361413    1.44267000698946   -1.20650105471139
O          -0.59308611632159    1.97210690933247   -0.60592424699610
H          -0.75342594856544    2.79948745505524   -1.06283419717117
O          -0.78303551575798    0.23737305842764    2.92234423125170
H          -0.97025891143860    0.66338417806663    3.75945222929123
O           2.83716817098038    0.07534242144737    0.63660262723981
H           3.24377750749603   -0.58708669706635    1.19773641699624
H           2.19334473192952   -0.40275923628457    0.07586555947601
O           0.97442078666977    1.74279933456228    1.69150126833012
H          -0.04830800718218    0.76915028164944    2.50888411629656
H           1.74182557071960    1.22784201940778    1.37242654114103
H           0.47291916716620    1.96450718484579    0.89050751497365
O          -2.39256798956815    0.49844222711242    0.83734187029123
H          -1.86806493061346    1.11951199834970    0.29785641604031
H          -2.01880482281858   -0.83603502288497    0.25526955952494
H          -1.90673695015349    0.43621648669021    1.69624384063043
N          -1.56486940166444   -1.73391246701073   -0.16553592046739
H          -1.45125010092658   -1.61322755612866   -1.21265055185501
H          -2.06447106929701   -2.57943372219577    0.08638327848438
H          -0.57088362610652   -1.75887113354826    0.12258330578720
