    26
        -50.45825244  Gyration_radius:  2.58522339781 Dipole_moment: 3.127
 S           1.56667286035245    0.54858960432305   -1.59155897654656
O           0.62780915928427    1.03975734457056   -2.59277289588671
O           1.16778421531320   -0.75192696338153   -1.07593779617577
O           1.84251789228523    1.52524476047429   -0.56114182930419
O           2.94360136357448    0.29402205344170   -2.34251877235572
H           3.29989282102506    1.16749162291326   -2.47566081875739
H           0.55830069016019    1.75623605397732    0.37491999924451
O          -0.23666375220801    1.91227008283056    0.94547292086729
H          -0.16378569479002    2.81828318134445    1.25024466424945
O          -2.05389435740448   -1.50729325325909    1.64893326105213
H          -2.60851305741798   -1.71527590057296    2.40155247976210
O           2.21386335985770   -1.37209284681794    1.29593174513658
H           1.90422421455943   -1.08836286127888    0.41215439383798
H           2.30917236377144   -2.32492197177804    1.25049669417981
O           0.07941385709928   -0.31522667154214    2.59647785899547
H          -1.20949998814778   -1.14037261791447    2.03097833804934
H           0.90541213112263   -0.71361647500526    2.25761936533744
H           0.00973711000847    0.53911918508438    2.14097301053690
O          -2.50586900091979    0.61484365020398    0.13306771095699
H          -1.90782319078472   -0.01102433485955   -1.09578186495195
H          -2.47632317587598   -0.16718784822170    0.73739814513319
H          -1.78846671267220    1.19830796444660    0.44414417606215
N          -1.31250096368636   -0.48375504168859   -1.87771241781131
H          -0.56699822600352   -1.04080177499284   -1.42404545800051
H          -0.72396487731112    0.25114853519264   -2.36489352724119
H          -1.87409906105279   -1.03345548750167   -2.51834040633961
