    26
        -50.45825250  Gyration_radius:  2.5852514256 Dipole_moment: 3.127
 S           0.01375461394253   -2.29021057058512    0.20753114078245
O           0.31633572500239   -1.45035188393953   -0.94106076755625
O          -1.42343897946504   -2.45371294727537    0.38893999123728
O           0.68480003465945   -1.88196737205916    1.42186676185125
O           0.59357284286290   -3.72306982022354   -0.16046859149358
H           0.59213692590513   -4.19367433834803    0.66795047238261
H           0.29803895246110   -0.37462542135553    1.81862651965539
O          -0.14137521371552    2.80750669472820   -1.14416087915156
H          -0.02135155655884    3.75686992833933   -1.18427208624252
O           0.05014816345374    0.54990305124538    2.07465433046079
H           0.11826856360096    0.58176866060774    3.03036426224042
O           2.74386508760495   -0.35044015966802   -0.89871548139280
H           1.88747364700425   -0.82220761344379   -0.85990809465923
H           2.97869676037933   -0.30258772375770   -1.82694540486243
O           1.79969167096529    1.86827632325891    0.34598563271855
H           2.26910010913156    1.12659706638236   -0.08468099362730
H           0.65267967064237    2.45693092114932   -0.65420381785164
H           1.28130127827213    1.45629644239379    1.05578247093549
O          -1.88249645513715    1.69391424697237    0.50959879628685
H          -1.31230052571910    2.22971286799009   -0.09484997191451
H          -2.10968877380143    0.49922513826386   -0.37380928008460
H          -1.27149730468867    1.34494471091220    1.18543977557386
N          -2.08137289161177   -0.39455683386881   -0.99808115777429
H          -1.12713715328674   -0.48550852265438   -1.38905166220541
H          -2.79762575253807   -0.39306830206094   -1.71568040142434
H          -2.11157943945092   -1.25596456298131   -0.38085155379167
