    26
        -50.45825258  Gyration_radius:  2.58530008126 Dipole_moment: 3.135
 S           0.31269861711557   -2.21232025946477   -0.54443497049036
O           0.77034902574620   -1.00652498126928   -1.21741746469584
O          -1.07923859255466   -2.50817593614613   -0.86102685628060
O           0.57380782498569   -2.22158836257783    0.87802138592679
O           1.18178078488221   -3.38959000301966   -1.16358260488047
H           1.03482182642252   -4.12183131935552   -0.57208824786827
H          -0.13102950537963   -0.97418255190727    1.60333608501203
O          -0.26988285551217    3.01859569213779   -0.16804458802197
H          -0.29200892790446    3.92609433962374    0.13733380804434
O          -0.57706275374015   -0.21410186877705    2.05620693243444
H          -0.76706317310458   -0.51716120615899    2.94564661922773
O           2.90333012537168    0.14146565523327   -0.10491419603539
H           3.36006492944398    0.52679553252429   -0.85454264300563
H           2.15002923660961   -0.36100112286016   -0.47570442145862
O           1.33722811579762    1.72316949942250    1.44714398402091
H           0.41350981603181    2.56221826725517    0.39613540461645
H           0.72204704629969    1.05958365600330    1.79848624824393
H           2.01120312617352    1.20802542384474    0.96108250407337
O          -2.18777384986224    1.29956113244127    0.44165961170540
H          -1.99022727375587    0.48171892819782   -0.80367784939156
H          -1.72762099265536    0.76905730655983    1.11894719891911
H          -1.56950819444564    2.04444975063165    0.24018486302791
N          -1.66302188509782   -0.13248019363348   -1.64343108404078
H          -0.63767871067875   -0.02738179198588   -1.74032063702364
H          -2.15921409445138    0.08176212858251   -2.50125726848775
H          -1.71953965547314   -1.15615775541180   -1.37374180361631
