    26
        -50.45825251  Gyration_radius:  2.58528417412 Dipole_moment: 3.138
 S           0.15187628041851   -0.86874344968954   -2.12423003820400
O          -1.10713657207979   -0.32556569396695   -2.61936718268658
O          -0.02124848881054   -1.54044124855892   -0.84548205907241
O           1.21953801805967    0.10681031032026   -2.13138150048790
O           0.58691085176384   -2.01117666795745   -3.13911083570929
H           0.90645329450551   -1.53518024200166   -3.90013806378450
H           0.96891782001973    1.24395108579573   -1.02537188369094
O           0.80966685522831    1.95534050013343   -0.35432922040300
H           1.22780949380703    2.74279754629698   -0.70663213791564
O          -0.63260093289847    0.36709241560768    2.94560819119150
H          -0.56158860349213    0.72719316701815    3.83023853656407
O           2.21248439375773   -1.79503841093651    0.58605928768158
H           2.07732867282381   -2.61880454888859    1.05741643079560
H           1.44719273839177   -1.69869132963430   -0.01602362330322
O           1.74912096164970    0.55129624688687    1.86742631526396
H           0.29619549786832    0.35845729103406    2.58382310648808
H           2.04126689027704   -0.29485596511674    1.47416497068914
H           1.54592036949185    1.12159146049072    1.10871181781847
O          -1.59727805949872    1.79908553979982    0.93988153940590
H          -2.10796619133165    0.59807045215261    0.19456477187354
H          -1.30927816940541    1.35481040282786    1.77502779985633
H          -0.76867068554071    2.00463192714044    0.46763155468963
N          -2.29217706634153   -0.33421986960651   -0.34063854196648
H          -2.06511447061855   -0.20127007727331   -1.36762935855917
H          -3.22518919084085   -0.69811330500707   -0.18247777161634
H          -1.55243369715837   -1.00902752679663   -0.07774210496455
