    26
        -50.45234083  Gyration_radius:  2.45875697324 Dipole_moment: 5.678
 S          -0.77269066640791    0.30202813757906    2.01832952784801
O           0.73153813820740   -0.02356514908618    1.79746517305656
O          -1.22882962588528    1.00517545154428    0.82910583632525
O          -1.44663640693143   -1.06485475728211    2.07832121921392
O          -0.93690227549827    1.00010726575467    3.23908919956513
O          -0.49105424243859   -0.43433413149913   -2.19374970453937
H          -0.61798453724311   -0.76071798108261   -3.08534470085421
O           0.28340571178065    2.93149650088752   -0.15790680818544
H          -0.33633221053640    2.31355252531687    0.28856201645207
H           0.56896607036199    3.55574256739128    0.51025517287977
O          -2.01368855697619    1.64351827832374   -1.66666308814791
H          -1.45395418251697    2.42647468485431   -1.69260689731467
H          -1.11911933034010    0.32612922227789   -2.07246207628667
H          -2.06188148114014    1.40201674083903   -0.72682394977194
O           1.48922019914163    0.53654278436448   -0.58620127481109
H           0.86593504642292    0.12962558316283   -1.21650616869042
H           1.26662618201332    1.48765868212959   -0.58323606816023
H           1.03023601158027    0.16435971217356    0.84430445555224
O          -0.72318878728425   -2.16189219205272   -0.06665281154094
H          -1.22195490991239   -1.54781686132956    1.19691986699187
H          -0.75195711751992   -1.55360536987182   -0.82719175873240
H           0.23824681879467   -2.35132488878506    0.08958602858449
N           1.92139818493327   -2.37782252271792    0.41309821480456
H           1.94425550303252   -2.05205132122793    1.37239564358727
H           2.37087489456950   -1.66774815769307   -0.15300030456931
H           2.46547156979793   -3.22869481397719    0.35091325674349
