    26
        -50.45825249  Gyration_radius:  2.58520101884 Dipole_moment: 3.130
 S          -0.46777758583662   -1.82557383130379   -1.31770217637947
O           0.58653677260196   -0.82993308984160   -1.43349232319722
O          -1.73227643349879   -1.33234963110486   -1.84970498929059
O          -0.60210944853578   -2.38147603338783    0.01066223474940
O          -0.01352375553983   -3.02376027031298   -2.25711055939093
H          -0.58277057453393   -3.74476399969317   -2.00462111863678
H          -0.91022729074576   -1.23316120547138    1.09016676306306
O           1.00752785291456    2.69204407205870    0.97349807419850
H           1.27225581259194    3.36736346970333    1.59893217436891
O          -1.11532343895996   -0.52898691759485    1.75640218849712
H          -1.62897748812195   -0.96100017091469    2.44092606753933
O           2.64187358757258   -1.19598910946722    0.22389244680445
H           1.87171840994033   -1.15408864543199   -0.37821515688041
H           3.38825343101820   -0.86152789483982   -0.27619687480697
O           1.49826065366027    0.38257793940180    2.11178109711783
H           1.28504496356922    1.82554933594367    1.38059535632626
H           0.60251477337106    0.00883352512105    2.12497475565971
H           2.01026545774655   -0.21334638989431    1.52991981497737
O          -1.52279566568643    1.96418470538261    0.70247103877268
H          -0.62993701665488    2.35940756216081    0.85822969916107
H          -1.35897932955095    1.56512719855461   -0.73721198766627
H          -1.50009078568460    1.10528800261863    1.16468953238319
N          -1.10232341797638    1.15397793929834   -1.71423387613957
H          -1.62820091184872    0.24556225745618   -1.86284671744011
H          -0.13200632306862    0.79592273549900   -1.66917674380619
H          -1.23693226866572    1.82011846610995   -2.46662872002080
