    26
        -50.45038886  Gyration_radius:  2.64359958404 Dipole_moment: 6.839
 S          -1.09124933164162   -0.54793461219015   -1.07634405900376
O          -0.81268031569225    0.95359416595449   -1.25558465933806
O          -1.52742728195202   -0.83162012412722    0.25153853492572
O           0.08899636313450   -1.27943363347275   -1.49548131094339
O          -2.22523041471253   -0.79278771236092   -2.07590427241283
H          -1.78410375871836   -0.61404269691636   -2.98203038386418
H           1.22717422068947   -1.25729315033219   -0.29186748856182
O           1.92588144728301   -1.05889661014066    0.37183367704258
H           2.68723282352741   -1.59165582797254    0.13428112384082
O           0.12420810700194    2.00477274185629    2.52743396685754
H          -0.40861530932319    2.79601374071197    2.60983440440138
O           1.22744148968130   -0.94293697142062    3.08682899495168
H           1.46335310486394   -0.03065119758113    3.27624697834020
H           1.44383006124554   -1.08853770689272    2.15287957529584
O           1.15843100612625    1.55597786016121    0.15336686323637
H           0.01309382597992    1.26273641702928   -0.67863065545997
H           0.79765528734975    1.79309108200022    1.04929984159076
H           1.60962188261096    0.70101982493671    0.27130963940174
O          -1.37181054993268   -0.11374097011671    2.87569993667186
H          -0.61939773178313   -0.67711824213322    3.13342005641439
H          -0.49486090293301    1.23694089031465    2.69252806241062
H          -1.60549578979361   -0.40121381650058    1.97928729698413
N          -0.68255916664454   -0.31235020025867   -4.06461768619477
H          -0.69034969622991   -0.72263383517154   -4.98892956462443
H           0.06472126936056   -0.72369939402089   -3.51375289697841
H          -0.51786063953913    0.68239996867433   -4.14264596500788
