    26
        -50.45825236  Gyration_radius:  2.58520057902 Dipole_moment: 3.123
 S           0.77528266387582   -1.84036425632870   -1.14002536533887
O          -0.07434413414190   -1.68426079427825   -2.31428814264455
O           0.00665329628565   -1.75491847997212    0.09208837968506
O           1.92987404127093   -0.96989891717132   -1.16907938379253
O           1.33794469391957   -3.32587095905577   -1.17745376524431
H           2.01006916076528   -3.30231779675516   -1.85238942813951
H           1.50184199609421    0.56634303628474   -0.97997426503185
O           1.23989982539465    1.51654220790991   -0.87843789116579
H           1.90362049858053    2.02084566654819   -1.35193619924678
O          -1.61992276760701    1.82037693342895    1.80906293949666
H          -1.82267905877964    2.58879971686814    2.34360311232115
O           1.44368492467905   -1.14229443314794    2.25172345616050
H           0.98950709522496   -1.60765009430994    2.95613620935486
H           0.99483932875556   -1.40214182806700    1.42196125846079
O           0.98103333210112    1.50845150140643    1.90020535650810
H           1.23463510992432    0.59333607168759    2.13274555403557
H           1.19277025908664    1.59341336971337    0.95671030485933
H          -0.64337220641582    1.66036724722282    1.92844707732862
O          -1.46031538739720    1.96289347800478   -0.82925276317235
H          -1.60072321464756    2.02940195491200    0.14720359770603
H          -0.49176313029602    1.92471492076846   -0.94044000230428
H          -1.86934714163535    0.53079400034301   -1.03190115157882
N          -2.01152168516207   -0.54992219608082   -1.06625456600993
H          -1.39233862364738   -0.96248341740209   -1.82140253565479
H          -2.98595960119446   -0.81321748362239   -1.16181255355710
H          -1.56936927508831   -0.96093944889595   -0.22523922305750
