    26
        -50.45825251  Gyration_radius:  2.58530583946 Dipole_moment: 3.131
 S           0.74795540552836   -0.25347158290354   -2.15988505316366
O          -0.49621374167811   -0.77670415413191   -2.71071399360172
O           1.13266927600825   -0.95524749068989   -0.94507711750576
O           0.73355458339249    1.18614188334886   -2.02247077650362
O           1.88988268728891   -0.58791854462453   -3.21293830179157
H           1.74990778820534    0.04162688425364   -3.91416354122680
H          -0.27976480537611    1.64627370825977   -0.86477483825390
O          -0.69653113780754   -0.51884029881847    2.90856316536143
H          -0.91594227837751   -0.31575861781969    3.81846205602909
O          -0.91534870854305    1.93444627023937   -0.16138677969238
H          -1.22111574702105    2.80308199593291   -0.42787208507457
O           2.81327931851897    0.39038006165153    0.62645143703095
H           3.33861002584534   -0.30306821587466    1.02916639146490
H           2.23048274125179   -0.05338066589780   -0.02230260864385
O           0.75680151160417    1.47545358295474    2.02525460812253
H           0.19627802944389    1.77952151995301    1.29341611473810
H          -0.06987814882659    0.19941137893416    2.61688555256782
H           1.58185389114376    1.16970276158793    1.59901023839430
O          -2.40589692672057   -0.08220627153690    0.93560028283780
H          -1.88340357208235   -0.24719364115546    1.75868467496154
H          -2.00571659524574    0.71545864459934    0.54126263716442
H          -1.85245826905108   -1.18411049591374    0.07632194925690
N          -1.28145458102784   -1.88677381693670   -0.53168513469935
H          -0.28504431209689   -1.81304415596730   -0.26051928033833
H          -1.22914261637981   -1.52834241988665   -1.52800288396393
H          -1.63336382830990   -2.83543831951064   -0.46728673350195
