    26
        -50.45825236  Gyration_radius:  2.58535122442 Dipole_moment: 3.125
 S           0.35324109782992   -1.94070483355429   -1.18256386942465
O           1.14371428182440   -0.72089395219928   -1.12242610060992
O          -0.78308618769726   -1.79968116756427   -2.08475436082297
O          -0.02677377145253   -2.45439703991896    0.11485821433926
O           1.31570990557794   -3.02878742203877   -1.82646961396314
H           0.87731724754310   -3.85691783546718   -1.65412374677490
H          -0.88175942743919   -1.37158587860939    0.93682468431654
O          -1.42208750040503   -0.71146351874722    1.44083690391667
H          -1.99873676468474   -1.22658338269183    2.00755374623777
O           0.05120678431449    2.89807930126518    0.90183645493537
H          -0.03393683869789    3.64405859880445    1.49644327872059
O           2.66625111284396   -0.49274814732389    1.05336053253157
H           3.42865190711799   -0.00539314813857    0.73671302779761
H           2.11189455764359   -0.66961521684411    0.26668808005822
O           0.70448205231596    0.83351644270016    2.37844554645412
H           0.38888875890274    2.14567791226737    1.46173550119936
H          -0.04901809423904    0.25037823297995    2.19292106625692
H           1.48239271550752    0.35849047771273    2.02476815004729
O          -2.06259035749726    1.55489913286880    0.04578730760154
H          -1.98018319372514    0.74929981091219    0.58992580395976
H          -1.36505092803545    2.16541968936569    0.38987568900844
H          -1.40728665031435    1.14609071778837   -1.24361012565644
N          -0.79559819362333    0.76871476969237   -2.06386738389988
H          -0.85510698204928    1.34728366214422   -2.89432399318763
H          -1.03816443839020   -0.24716982458780   -2.24547239199545
H           0.17562889677340    0.66403261916165   -1.72096240107365
