    26
        -50.45882304  Gyration_radius:  2.49477130525 Dipole_moment: 4.340
 S           1.20119769678041    0.71810972128423    1.61066586545406
O           1.30000279538202   -0.72775722581836    1.61834159786360
O          -0.14604395298575    1.18353463469947    1.30994834163538
O           2.18695360774188    1.36860157803671    0.77065807865273
O           1.50393161384870    1.17649415631518    3.09497228189097
H           1.50292933167303    2.12144780723312    2.99255870219232
H           1.82453243811689    1.23589036998292   -0.77915106698621
O          -1.65287933962100   -1.95347606744297   -0.23291418978668
H          -1.50179704962776   -2.15062542896195    0.72087138203997
O           1.63671006748747    1.05134444670818   -1.73670900510836
H           2.48172078493760    1.13767895455861   -2.18188134855503
O          -0.84975230373756   -2.10624984041558    2.29623322563239
H          -0.51636676501718   -2.90992620324052    2.69835406534070
H          -0.06352606018840   -1.54035475887577    2.13289692944130
O          -2.08735926363716    0.48677059565052   -0.14524167977235
H          -1.99862896689156   -0.58631738679446   -0.18225213497258
H          -1.36738045567867    0.78072483662280    0.50712420139476
H          -1.75523611415744    0.83125503562261   -1.08654363449930
O           0.85769646002820   -1.47552659463382   -0.92126261339152
H           1.10739818892528   -0.66446056865094   -1.39213646270525
H           1.14648677167131   -1.32872242185170   -0.00157475265539
H          -0.74566570576339   -1.91503314481803   -0.62360950323377
N          -1.15090047210992    1.24960031362254   -2.39708228645670
H          -0.14625062914987    1.28251059093539   -2.21950752862293
H          -1.44822395768922    2.16041255590009   -2.72110682537190
H          -1.31954873030293    0.57407407436302   -3.13165164944728
