    26
        -50.45882313  Gyration_radius:  2.49462221088 Dipole_moment: 4.335
 S          -1.25179506835825    1.25941619170321   -1.18306043083957
O          -0.26419327963299    2.11282506811665   -0.55314259498647
O          -1.73286043279949    0.21152449228742   -0.29276640923706
O          -0.83028378702438    0.71833613207636   -2.45972861847326
O          -2.49682608757548    2.19069066612922   -1.47915670571013
H          -3.05878044104892    1.58991673511133   -1.95532311441937
H           0.22404762469400   -0.46781769224054   -2.27976167393992
O           0.95437792474271   -1.12793938337103   -2.14897432304432
H           1.44172795962669   -1.13346756201314   -2.97489186048157
O           1.00029604400288    0.21989051867848    2.35692285688107
H           0.51647619336540    1.07398453937186    2.44539732833837
O          -0.41676517691994    2.44907554867125    2.06264672700543
H          -0.06465177671140    3.32573744283850    2.22439620333207
H          -0.46002532129529    2.35193779979253    1.08591103627867
O          -0.81108064812351   -1.26270100338622    1.53705340354459
H          -0.04432998075679   -0.65315935928243    1.98582441210477
H          -1.25437841064877   -0.65514671604152    0.85529997811241
H          -0.29852826356116   -1.98461221455973    0.96163581483919
O           1.86097214338288    0.52913314513047   -0.12700729890254
H           1.21070799314000    1.22649385110754   -0.33066959187409
H           1.49912008848862    0.30524528835699    1.50787660467670
H           1.71374949025889   -0.15216418619268   -0.80233934680501
N           0.49587415360444   -2.89474854702340    0.06807940210528
H           0.63237840881699   -2.35934419534120   -0.79016854890214
H           0.02828015927486   -3.76042207149436   -0.16631236651314
H           1.40649048109415   -3.11268447845314    0.45225910689384
