    26
        -50.45488102  Gyration_radius:  2.4742467188 Dipole_moment: 0.414
 S          -1.13458307050074   -0.79482936760096   -0.08421071489532
O          -1.70500756714666   -1.71604695266053   -1.15349630701255
O          -1.95057050466811   -1.15377410554058    1.14271720893928
O           0.25905219145241   -1.09012083646859    0.14355803671745
O          -1.36778907284952    0.58747388404919   -0.44909491767541
O           1.29055858608940   -1.49957963084063    2.57750033492252
H           1.23666839760087   -2.43815892524523    2.76536288597666
H           1.05940192606692   -1.39370010935341    1.63377067245950
O           0.14649078495366    1.16788755231721   -2.62898282685907
H           0.98409965789423    1.23573824906229   -2.10938682832355
H          -0.54245784279041    1.18457750896541   -1.94562739994416
O          -0.23654183819744    2.11264291208170    1.39664218785863
H          -0.61855484448650    1.62185524975830    0.63871978379327
H          -0.74919929947308    2.91911066046310    1.48088773277416
O          -0.28619424074702   -1.30784288468034   -3.18598804736046
H          -0.02456660614450   -0.33982651537925   -3.05145798753537
H          -1.11548946274542   -1.61890606164246   -1.99892438263212
H          -0.82359236590677   -1.33293460315104   -3.98147418295492
O          -0.82626606762574    0.05043166618461    3.00144629416053
H          -0.55914460182610    0.89358228172428    2.56942488141140
H          -1.54125223265749   -0.65084191245494    1.99297533779398
H           0.00149215670816   -0.47947691224341    3.07463466894932
N           2.03177159224654    1.08732858612960   -0.70881433239061
H           3.03597656941542    0.96238491434792   -0.72802819328535
H           1.61520190384707    0.21428797869858   -0.39377009365028
H           1.82049584151692    1.77873735347445    0.00161620873158
