    26
        -50.45882204  Gyration_radius:  2.49474040663 Dipole_moment: 4.337
 S          -0.40380949997761    1.56821918193478   -1.38988248845833
O          -1.68189400607658    1.10862303085038   -0.88409988313264
O           0.53043534023222    0.47446169357254   -1.61977854636666
O           0.19737437535200    2.62117521746636   -0.59594351017874
O          -0.70607338891589    2.19626052693559   -2.81081160602077
H           0.14517439843608    2.55797183058361   -3.02986332616704
H           0.82968100060838    2.05184946267676    0.75623184901296
O           1.12021143932758    1.69465465210673    1.63605394633443
H           1.11993004487788    2.44888147729127    2.22834658619449
O          -1.08465592661971   -2.28793575469828    0.44244881250124
H          -1.68941847543767   -2.10985091764570   -0.31507086775564
O          -2.49116060352163   -1.30596127332889   -1.58784490316295
H          -3.44833208343376   -1.25763194167955   -1.59521149671195
H          -2.17639728461916   -0.38917172729920   -1.42775779133505
O          -1.15043787885420    0.11476988552812    1.55193840024926
H          -0.33619465661183    0.59667158010849    1.76773445926873
H          -1.48858590996613    0.54514534617500    0.74502910997046
H          -1.16663916772706   -1.48826994028642    1.01747577711424
O           1.11288941863700   -1.74704189561157   -0.57276202447783
H           1.69115104812325   -1.42536269458937    0.25009594943931
H           0.17716707136219   -2.07874617533082   -0.15504906828053
H           0.88139070941999   -0.89602095589383   -1.07540002099801
N           2.39863907129676   -0.87062954650691    1.45400836566733
H           2.15961897496023   -1.36731813661232    2.30281184781515
H           2.05388546896468    0.08645189571024    1.53781013457437
H           3.40605050015440   -0.84119483144565    1.36949027490533
