    26
        -50.45996587  Gyration_radius:  2.46192815376 Dipole_moment: 6.416
 S           0.05389964907677   -2.08414214317439    0.04814349429686
O          -0.97829567369162   -1.41912503328961    0.84218973431416
O           1.38676644965103   -1.66513127170027    0.42073214823438
O          -0.22327246669552   -1.98413340055476   -1.37140557418548
O          -0.04796137995491   -3.62016855043412    0.41012172939678
H          -0.83619229178514   -3.86836438578762   -0.05964412404945
H           0.15749834226375   -0.63334831128621   -2.14631230311700
O           0.42324594295883    0.21474166531792   -2.58664522708743
H           0.88037930658209   -0.04242943188363   -3.38901567249502
O           0.67948695775608    1.68872417530053    1.84689666349836
H           0.85254664914926    0.89535328517177    2.41258544045836
O           0.84300907062682   -0.75436572480907    2.86484420387840
H           1.22194649482359   -1.15736765971155    2.06004771222132
H          -0.07033792587169   -1.05588620369185    2.87273427916559
O          -1.52346286972441    1.05312992954244    0.92708061122350
H          -1.38501394810591    0.04956185715206    0.86845323341293
H          -0.59484958781180    1.41515854264711    1.37901735920268
H          -1.54321309400281    1.43764138688728   -0.05751466268565
O           1.90362545960996    0.86262422390137   -0.34099218031286
H           1.45833927685749    0.84557112144142   -1.20266676071444
H           1.24438558508042    1.55019905813616    1.04622278733609
H           1.92545493039764   -0.06995532761026   -0.05904805546471
N          -1.48588848006004    1.99855766360865   -1.44544780624045
H          -1.11545923994913    2.94047437287305   -1.45174799653265
H          -2.38045382763744    2.00120459370890   -1.91767404239933
H          -0.84618331957496    1.40147556826180   -1.97095500136059
