    26
        -50.45996637  Gyration_radius:  2.46173107893 Dipole_moment: 6.418
 S           1.80655458782340   -0.93179089239122    0.45932366716515
O           1.89668295169857   -0.60614171983432   -0.94670959379367
O           0.57918501446228   -1.65818235645680    0.78237192719097
O           1.99954824027026    0.20155992258119    1.34269426879943
O           2.99144492306833   -1.93434194715173    0.76179834595506
H           3.00419012812075   -1.92333075195697    1.71220845387462
H           1.21441219503878    1.56712484076946    1.04362348045883
O           0.71859386976221    2.39448791995975    0.81261482562496
H           1.35867165882330    3.10546884335592    0.87334168898398
O          -1.69390618568049   -0.56613907365363   -1.87871614160730
H          -1.09729743433407   -1.32577054670334   -2.09443558625132
O           0.19391532146656   -2.42789568672376   -1.88497493991268
H           0.06927118402042   -2.87896298479456   -1.04467245113684
H           0.92739467741979   -1.80528802592738   -1.71707827764714
O          -1.80617158375184   -0.83108953232727    0.57441676524899
H          -0.86583633736408   -1.17518272338700    0.73919250971172
H          -1.86812841559804    0.14827804976565    0.96660908995425
H          -1.85757814498994   -0.73044851729049   -0.51499371282093
O           0.14989595277971    1.30911885424026   -1.66698989386528
H          -1.11087320362180    0.23169138170814   -1.93932828456282
H           0.21899731479741    1.86842920376398   -0.87732754194727
H           0.88393215362966    0.67390548966939   -1.58134134695718
N          -1.93618427693930    1.56717226847653    1.44495010422121
H          -2.16813933131921    1.65152455250756    2.42595098737992
H          -2.60085436102239    2.11073917721766    0.90902456056524
H          -1.00772090856160    1.96506426458514    1.29844709536949
