    26
        -50.45996633  Gyration_radius:  2.4618948533 Dipole_moment: 6.426
 S          -1.31684105035854    0.96247453966850    1.29661699592126
O          -1.89276960320497    0.31614665311023    0.11811668261295
O          -0.33540105721451    1.96513787073111    0.94700620214020
O          -0.84801108440850   -0.01394087430093    2.26029925948883
O          -2.51113253995885    1.73043827875947    1.99257745526127
H          -2.98869323830909    1.00905818046332    2.38651697010274
H           0.58334962237717   -0.70350723290191    2.04578322308007
O           1.47974883315260   -1.09389233290941    1.87905789069822
H           1.94120746009042   -1.05064562198280    2.71814882560999
O           0.76962186504591    0.71853269406706   -2.36882967738377
H           0.14389193630383    1.47859880117702   -2.26876292774727
O          -1.10349651353961    2.41458843629040   -1.56471176857087
H          -0.78723723354859    2.45883976921460   -0.64174481185279
H          -1.89552177489045    1.87092575412647   -1.51802068532461
O          -0.69850640809921   -1.11257787196311   -1.59888848119111
H          -0.06685784944320   -1.79737647511137   -1.10052477094330
H          -1.22723664827879   -0.60577213382176   -0.89633988001962
H          -0.04421658294656   -0.34808017657926   -2.03111375423802
O           1.93351752262547    0.87838826382812   -0.00643283347962
H           1.98687473437687    0.11352014968700    0.58794570712132
H           1.37584898634971    0.79244633301627   -1.58971142641188
H           1.23400021634630    1.43792221684328    0.37737777209834
N           0.89110239941512   -2.71023789378480   -0.39561557438909
H           0.49360922928002   -3.61125394381926   -0.16448614931782
H           1.15000524830969   -2.24059695141730    0.47282216745561
H           1.73314355052855   -2.85913642235557   -0.93708640072404
