    26
        -50.45234084  Gyration_radius:  2.45886253844 Dipole_moment: 5.681
 S           0.43282600301455   -0.01908083756986    2.13848926138577
O           0.50631631914170    0.53607947481030    3.43887174089554
O           0.79474510877538   -1.50067536134061    2.15853455576865
O          -1.03900930504038    0.00761455848309    1.63819648965259
O           1.23274419361693    0.65213841006463    1.12537703399334
O           0.78801099491490   -0.37235906685225   -2.11714125756012
H           1.00834076885329   -0.65366101712302   -3.00590408732471
O           0.34936206637028    2.92683030817067    0.11666102334529
H           0.73815978713816    2.15857625793848    0.58969513050856
H           0.07838850916046    3.54986328313867    0.79196249233675
O          -1.21632021495422    0.88944941878189   -0.76150696547217
H          -0.81026745654894    1.76630602133846   -0.61868830274772
H          -0.58332422705745    0.40232264859872   -1.32135631855689
H          -1.11305175087058    0.32455103226181    0.67511866194429
O           2.57601527235798    1.27928177314088   -1.12285718998467
H           1.52361701104491    0.22176691896022   -1.81160396685886
H           2.20130471196888    2.16554526346673   -1.15573456170244
H           2.40038319457400    0.96683267413872   -0.21981035177686
O           0.27083480080975   -2.25727634513562   -0.18268802532777
H           0.56097966098165   -1.61698092144689   -0.85728451708204
H           0.64262081661705   -1.85854903885571    1.20491935409020
H          -0.72100068935574   -2.24319272897550   -0.20773026380539
N          -2.40509281697848   -1.92561376722457   -0.16852704448536
H          -3.08830864306014   -2.63284525233188   -0.40696749086553
H          -2.59282632369445   -1.09852941604077   -0.72293303241427
H          -2.53544779177132   -1.66839428039652    0.80290764203869
