    26
        -50.45038888  Gyration_radius:  2.64371309928 Dipole_moment: 6.841
 S           0.18711523342606   -1.12591273834347   -1.16040546685304
O           1.43390984718508   -0.87357364069466   -0.51550319832366
O          -0.41898460079588    0.17384164933650   -1.71525106489956
O          -0.80868910227611   -1.76718810256880   -0.32319861384474
O           0.39907574965120   -1.95667165076709   -2.42918152300053
H          -0.55340934890962   -2.11949193717897   -2.76680546899987
H          -0.84662448808852   -1.04518978295646    1.16743552052209
O           1.19698814927897    2.89148024577268    0.79644926950441
H           1.48858901737872    3.54460607475961    0.15987514577537
O          -0.95457142045197   -0.47041023620254    1.95865134809475
H          -1.56467668624305   -0.92331439358369    2.54394015822239
O           1.32255487766768    0.69359090999808    3.11309681403683
H           1.10264874831305    1.62275670373996    3.00318274499615
H           0.57682721951642    0.19520503635990    2.74469363335570
O           2.91647747589928    0.92170970924556    0.90031197113620
H           2.54928261198679    0.24198576507154    0.31380059209296
H           1.90179164646718    2.18206101862653    0.80661436643213
H           2.64633714835566    0.65347210908158    1.79755110391653
O          -1.03586078758098    1.63317757645529    0.21431237874231
H          -0.69692384862645    0.82995729031420   -0.93906068895206
H          -1.12390123056430    0.99757974300374    0.94693244313911
H          -0.22748443331434    2.17277079121305    0.42502962561192
N          -2.12558520526017   -2.14395942928322   -2.82388613373552
H          -2.48581041644440   -1.26852808461921   -3.17978625573360
H          -2.22752043016132   -2.15113374126935   -1.81360074076780
H          -2.65155570641768   -2.90882089552528   -3.22519795047832
