    26
        -50.43882630  Gyration_radius:  2.42429087295 Dipole_moment: 5.172
 S           1.61040847785918   -0.29108527229619   -1.27892711583788
O           0.28705269529040   -0.80172126654277   -1.64787712131976
O           1.82558614599528   -0.27771262438718    0.14676423694947
O           1.84628435110072    1.00664203423475   -1.89711726677172
O           2.65110179090832   -1.29545125339507   -1.89973105302157
H           2.42552948853482   -1.29478972677215   -2.82455741754415
H           0.89289952236727    2.02767683850975   -1.24606851398053
O           0.17194153488670    2.58372343943426   -0.81652538067573
H          -0.02681625188661    3.28501123575230   -1.44040955088990
O          -1.24409230352955    0.35553526082283    1.98335600338749
H          -1.88747715758884    0.77729251618880    2.55370486749500
O           0.32970840484801   -2.07586684927489    1.59640499235172
H           0.97330702258964   -1.56812204798261    1.07905931058848
H          -0.17472993081582   -1.42126115343417    2.09063484515017
O           0.97412233453114    1.70041099568333    1.73555618122330
H           1.47181764668274    0.98345562855876    1.29557035690480
H           0.82655834984489    2.35942620580380    1.04649221618447
H          -0.40040205130859    0.88799893897270    2.02751974861922
O          -1.44200343376986    0.60132977093057   -0.55434305158269
H          -0.82725673210328   -0.11356708789029   -1.02116362673449
H          -1.49833786845090    0.32444849589968    0.43057376339848
H          -0.91164245575799    1.46489021464035   -0.61665631059874
N          -2.06332823829841   -2.03652473583885   -0.14963997980944
H          -1.75161238407022   -2.20811245851880   -1.09861525729622
H          -2.78721541998402   -2.71502625273840    0.05435188437983
H          -1.27140352785195   -2.25860081636499    0.45164321944754
