    26
        -50.43882608  Gyration_radius:  2.42427740591 Dipole_moment: 5.172
 S          -1.28431371772471    1.53252503380575    0.56440886596165
O           0.15853500406542    1.67909490031129    0.77607958909299
O          -1.72474122127959    0.16242371520516    0.65364699198483
O          -1.68448583397156    2.17373881121052   -0.68076975017694
O          -1.97707995767897    2.32343760590916    1.73554465139980
H          -1.61181962303004    3.19846256376454    1.65087800727373
H          -1.08609814975750    1.36600963449459   -1.84930137670587
O          -0.57741328552171    0.81878097287176   -2.52395839291585
H          -0.43120317436895    1.39679943315134   -3.27565686349095
O           0.80520674091979   -2.16386722515907   -0.52153154055696
H           1.24557969825052   -2.83540892935360   -1.04329075190165
O          -0.14220749696855   -1.50585251283810    2.16460537744795
H           0.12632987640408   -2.08200293876567    1.44126938981992
H          -0.78493984155821   -0.89110249467617    1.77908322639608
O           1.35321801558727    0.30405285020100   -0.90780265645208
H           0.67008133899659    0.44769327010903   -1.64503875898092
H           0.98626924411274    0.87142486899593   -0.10132293850323
H           1.30743311958954   -0.67453011932795   -0.60739576955133
O          -1.57625447017416   -1.55896792617997   -1.39011947470967
H          -1.83410266881261   -1.03739957487698   -0.60475680063986
H          -1.46167671957841   -0.90857967570436   -2.09348770448253
H          -0.12712107679450   -2.07052348444734   -0.86676558418766
N           2.44087807119268   -0.18904425020328    1.55611203248259
H           2.33604014564539    0.79987428616759    1.75142221325657
H           3.24833715228777   -0.51229373966129    2.07519579034770
H           1.62554883016743   -0.64474507500428    1.96295219778771
