    26
        -50.45038889  Gyration_radius:  2.64387305681 Dipole_moment: 6.842
 S          -0.29953799167233   -1.03607850492194   -1.21866780821137
O          -0.92857852976215   -1.49017289957426   -0.02193098526789
O           1.20848889793759   -0.82643835033511   -1.00284258502475
O          -0.85189238189385    0.18825253080305   -1.76618308789087
O          -0.32854085539748   -2.13197796077172   -2.28775684300053
H           0.09173073304587   -1.67788062198133   -3.10321194361563
H          -1.08960914998558    1.29412216452186   -0.55576745503891
O          -1.03811321702589    1.96573072789607    0.16142711333932
H          -1.46180022337871    2.75761019492481   -0.17517638118547
O           1.29919652706638   -0.03634061673074    2.95614989394445
H           2.02094907432505   -0.60904606742979    3.21676557310715
O          -1.64521841767357    1.19613685865342    2.79047995837818
H          -0.80198792136972    1.38172437506381    3.21276067867940
H          -1.53941714675153    1.44223253451470    1.85852059177182
O          -0.89795666458308   -1.43502539994223    2.70245003661379
H           0.48987891155312   -0.62098643236223    2.89909293659711
H          -1.47690867027522   -0.66247318259580    2.83617579056804
H          -0.95674557819377   -1.63195595630242    1.75454950112943
O           1.51240522423701    1.07674000681501    0.58452349003133
H           1.39415178749193   -0.03182388664605   -0.33644181682779
H           0.67492384394482    1.56626223157130    0.49841660729789
H           1.49856535586371    0.68279398033925    1.49749991252004
N           0.70190489221333   -0.56661869663139   -4.03492926421065
H           0.19571561067169    0.18629241955111   -3.57888932275563
H           0.53838035383395   -0.53236573477509   -5.03234061224318
H           1.69001553566913   -0.44871370357342   -3.85467397865719
