    26
        -50.43882622  Gyration_radius:  2.42423207544 Dipole_moment: 5.171
 S          -1.17359183149628   -1.39761507123186   -0.99204008333930
O          -1.20845145876602   -1.32984488131071    0.44784726126940
O           0.12903885153253   -1.01792701669537   -1.54621772388368
O          -2.23848820679707   -0.62628040132557   -1.61882055786237
O          -1.39381063483865   -2.90309427822392   -1.39478198010742
H          -1.31143952951578   -2.88703871777122   -2.34299966314844
H          -2.09366757701787    0.84142164181270   -1.17116447858287
O          -1.85255819831931    1.77630943350127   -0.88591431570035
H          -2.20624154307215    2.35764819581533   -1.56230316943957
O           0.92158739522481    1.31343385024512    1.74123874557956
H           1.20256635538443    2.11539568149003    2.18286203070680
O           1.21991388579866   -1.59390207501360    1.71401379826185
H           1.23910408247849   -0.70933825015245    2.09397579993682
H           0.35399159585073   -1.67114516353725    1.28510743485569
O           0.66879493136551    1.28648406434329   -0.80353480073728
H           0.60628755512866    0.29003341790439   -1.13562578895478
H          -0.29210279306504    1.61418716560949   -0.81559213359814
H           0.98455959186795    1.23959739967967    0.17002032029471
O          -1.65670405421496    0.93798201679661    1.79633998962158
H          -1.62573205185740    0.01650413011640    1.47197438342611
H          -0.05871422694210    1.20542329993749    1.89777381369113
H          -2.02946284153797    1.44610274482905    1.06576080572470
N           2.85938719714363   -0.30566379321620   -0.39049140218499
H           2.63991336478594   -0.75856363834528   -1.27018316026440
H           2.45119254963601   -0.89037205542564    0.33710857305178
H           3.86462760123581   -0.34973767982654   -0.27435372861460
