    26
        -50.43882618  Gyration_radius:  2.42418992612 Dipole_moment: 5.169
 S          -1.88798470258134   -0.63076295680836   -0.59428409264308
O          -1.42941067508603   -0.91196105810452    0.74355812650570
O          -0.79570473320093   -0.58722476392194   -1.57046753271808
O          -2.68990023855726    0.58277552063063   -0.67231828614347
O          -2.81369662767418   -1.82601467926977   -1.03206450564831
H          -3.04004422276730   -1.60589327729040   -1.93010401334920
H          -1.82942102433717    1.75735581593044   -0.16741978776190
O           1.87763104064382    0.45391976060760    1.36891791020960
H           2.58386565392118    0.97954402816315    1.74585334919998
O          -1.15389632100266    2.45576484785660    0.09617045699861
H          -1.43825376896660    3.26954164147099   -0.32506588624535
O           0.94926501003814   -2.28236178042921    0.92628125849561
H           0.03892952845629   -1.95503944347703    0.86392344356906
H           1.44489050193691   -1.57907447916744    1.35861890976218
O          -0.46574221997331    0.96740125758928    2.38703209580190
H          -0.91535024024711    0.19949151261402    1.98270696569729
H           1.04414776240823    0.64725218958565    1.88373976422869
H          -0.81383548512707    1.73469442995893    1.91693654540814
O           0.83579033331179    1.14248226586497   -0.86266945847234
H           0.27379128405990    0.33988505377169   -1.24543609321343
H           0.14052139951260    1.76636458021138   -0.46472104280246
H           1.39891486200285    0.75336422939721   -0.10011282195252
N           2.20220967545607   -1.14250518483161   -1.50401141193523
H           1.84802846970830   -1.71664892720391   -0.74055400252174
H           3.08391424374292   -1.54860614076414   -1.79319479517107
H           1.55134050430844   -1.26374444238820   -2.27131508529231
