    26
        -50.43882618  Gyration_radius:  2.42421862429 Dipole_moment: 5.169
 S           1.70477101004141   -0.52889346954323    1.06303685370507
O           0.59157045425481    0.12797839585116    1.75390535921799
O           1.82096029287712   -0.12588864954412   -0.31655394572120
O           1.62223383711996   -1.97432872538313    1.22322815585054
O           3.01236274108463   -0.05542253006216    1.80003120850922
H           2.85211573854674   -0.30443823029522    2.70477521074226
H           0.39304301452000   -2.47330789465533    0.43856657789763
O          -1.41251765263622    0.61537230816570   -1.79742253340617
H          -2.17942564360010    0.56623660343671   -2.36889946998878
O          -0.47519390287262   -2.67325972542509   -0.03013278485529
H          -0.81637224705178   -3.47229970803744    0.37689216372905
O           0.77745652052782    2.34531227016829   -0.92755903091887
H           0.08792826717947    2.02693968026104   -1.51947632729371
H           1.29130268508306    1.56000024477461   -0.68476132281964
O          -1.51315897725102   -0.39500972024801    0.54955564120635
H          -1.55365215992857    0.19460531653631   -0.28759188260251
H          -1.23009979721498   -1.32988638654737    0.27240443472436
H          -0.70233374765631   -0.03695189108268    1.11629261359181
O           0.37506918560592   -1.21663486446441   -2.28663371605838
H           1.07242572548733   -0.82096979462361   -1.72761704962877
H           0.09911354242104   -2.01131669844781   -1.81419445723355
H          -0.74677640208402   -0.05523180935345   -2.12035433932088
N          -1.43226076246884    2.29742330638100    1.04480610808867
H          -0.64551756188160    2.51101654557004    0.43374966244952
H          -1.03241737936229    2.07442454091378    1.94897772422238
H          -1.96062678073270    3.15453087565566    1.15497514591273
