    26
        -50.43882610  Gyration_radius:  2.4242385009 Dipole_moment: 5.171
 S          -1.61256156844462   -1.28664494364741    0.24263629740721
O          -0.34816921437029   -1.80472803622759   -0.21775292792012
O          -1.84492733529476    0.09780056347458   -0.17854454565325
O          -1.78486197888847   -1.41681504668257    1.68325407615687
O          -2.74428237059653   -2.14308679761626   -0.43776555962930
H          -3.54373222114063   -1.72675173402374   -0.13129702305138
H          -0.63681490617173   -0.65411211421676    2.37276005405012
O           0.09983715767697   -0.05788498836687    2.71261437477768
H          -0.18868248834886    0.25306446925137    3.57320081407818
O           2.19998501924230    0.77654514933452   -0.40354847778807
H           3.00197738098431    1.27121702870249   -0.23250906001551
O           0.67898747338725   -0.61605708054375   -2.47609892347521
H           0.24296866237277   -1.14381580419107   -1.78966570398598
H           1.46392626263253   -0.24892075919423   -2.05630631886399
O           1.96420160159159   -1.36899494776424    1.05704496478199
H           1.21035120227846   -1.74089375772358    0.55835923864624
H           2.24427501173345   -0.06986575807123    0.12439723386883
H           1.59061567513002   -1.09268327524842    1.90259965952661
O           0.00339140995237    1.51183154655852    0.68016324602413
H           0.12969795557296    0.98522822288571    1.53893294752859
H           0.82156094163786    1.36102853837950    0.08212677952890
H          -0.79937099329999    1.03177054375161    0.19831705397641
N          -0.39281876807629    2.09789364019905   -1.96548740639664
H          -0.27833218336923    2.77716784359740   -2.70800333161327
H          -1.38743002439733    2.00876046348116   -1.79232550126355
H          -0.08979172179660    1.19894703390525   -2.33710195069272
