    26
        -50.43882594  Gyration_radius:  2.42423683703 Dipole_moment: 5.172
 S          -1.97633710205807   -0.48398064054886    0.41941096977679
O          -1.66964449331814    0.75645080251132   -0.29840571299349
O          -0.93487730916657   -0.86730183045458    1.33997095923610
O          -2.31867544326617   -1.54451183538787   -0.51867673407804
O          -3.26616056714377   -0.18552595205261    1.27057354688763
H          -3.89565372917238    0.09917442173318    0.61557820629550
H          -1.04643604370670   -1.91382858135061   -1.30640926060408
O           2.35973569946837    0.10111335531792    0.15845389175551
H           3.26426590878285    0.04324599824223   -0.15071151253658
O          -0.18328980680130   -2.01025876241864   -1.81558971785412
H          -0.42451326576365   -2.34370290554345   -2.68229541951261
O           0.65126180135560    1.17796234652707    2.27259005128540
H          -0.00462844230096    0.49012508913020    2.08139541254062
H           1.47147361212009    0.86639768544028    1.87599785979691
O           1.25369424406837   -2.21751052374093    0.59824876594562
H           2.05622865983093   -0.82119180796810    0.39127694903348
H           0.46799147433387   -1.86180978117004    1.05798920479560
H           0.92217017430120   -2.53539175176472   -0.25023651031174
O           0.46665771042103    0.45896039648126   -1.52340590962320
H           0.31977794813205   -0.52504013968153   -1.72552471942691
H          -0.40424299051678    0.74986724671520   -1.00956417678987
H           1.23287175049326    0.54238344131987   -0.84826800761376
N           0.55375574848070    2.84133662150560   -0.17682459130788
H           0.55641628765016    2.45175582933182    0.76452629520012
H          -0.42067622636592    2.96812082153186   -0.42487708592975
H           0.96883439013774    3.76316045629089   -0.11522273396830
