    26
        -50.43882609  Gyration_radius:  2.42426068993 Dipole_moment: 5.179
 S          -2.06652082397738    0.11683526705781   -0.17806318344759
O          -1.46229358628819   -0.99795217886419    0.55677424204209
O          -1.22959703872711    0.59698479066815   -1.24956517362852
O          -2.46972077191136    1.17348975342345    0.74005182084331
O          -3.37988070746114   -0.45432241807656   -0.83069906607259
H          -3.86365477572554   -0.79019905279904   -0.08269536621501
H          -1.19507960446969    1.80491307662206    1.33267066452116
O          -0.30644294843434    2.08063913075880    1.71736909708196
H          -0.49478821280099    2.43173535223044    2.59018870942252
O           2.30396192124857    0.28182435013130   -0.46567709413690
H           3.21539647179445    0.51316133047281   -0.28441975156443
O           0.56537948241462   -1.21928651893875   -2.27463941000818
H          -0.17272903667212   -0.63823260271953   -2.03510273301523
H           1.36031511130858   -0.74653296030754   -2.00672283897165
O           0.76333960850675    2.34318584684093   -0.87571825698764
H           0.48782681537622    2.66456278878903   -0.00872181785077
H           1.81700873977260    1.12036821368324   -0.70429921058283
H           0.00142356196084    1.82837746532298   -1.20709663277404
O           0.72334364187655   -0.26059443289378    1.46993061410287
H           0.43296349165373    0.69761124136906    1.63867317900202
H          -0.13935674151898   -0.72918176430898    1.09228851564537
H           1.40407456853816   -0.26466083971685    0.70402678871720
N           1.05675036569039   -2.68919171814377    0.24999783604862
H           0.87859878258863   -2.37598353717320   -0.70294893343940
H           0.15598202440129   -2.95497255555042    0.63088755416797
H           1.61369965085132   -3.53257799787252    0.18351047709966
