    26
        -50.45038889  Gyration_radius:  2.64366471901 Dipole_moment: 6.842
 S          -0.17094904752079   -1.41858968123226   -0.78017008449827
O           0.84550007344732   -0.49918517025659   -1.47745756539441
O          -1.43710716507877   -0.77515623894656   -0.65053186647192
O           0.41055820643849   -1.86833995208491    0.47018415100761
O          -0.26683034191463   -2.59807130372130   -1.75203991753760
H           0.67078847491036   -3.00732897224293   -1.71985563209322
H           0.26407006829895   -0.68690350218709    1.62220539480544
O           0.31493058838506    0.10443834605129    2.20467897017389
H           0.63761501802838   -0.20218574126010    3.05420459329397
O          -0.61751048921198    3.13106611470694   -0.48854935461527
H          -0.58130355353882    3.55645575741760   -1.34562302079956
O          -1.82092587486741    1.92410255077110    2.21480769950959
H          -1.36332126807896    2.71270221802568    1.91064873584673
H          -1.15192216080265    1.22328753297825    2.25452244075980
O          -2.73557907622362    1.60115980456847   -0.34394060686432
H          -1.45426389886285    2.58340981369878   -0.48738398320270
H          -2.41448798873316    0.71295797578931   -0.56486440904127
H          -2.76072207958868    1.62555025990353    0.63009847518120
O           1.31769291540393    1.43092431257246    0.03456087402300
H           0.63761459352664    2.12426218027539   -0.17908523059455
H           1.07166750584313    1.08484578440207    0.91099518099730
H           1.08014122054688    0.33641272446384   -0.88027788328432
N           2.15759011239143   -3.28308877642121   -1.28451377733465
H           2.56364384212349   -4.20907995529134   -1.26429253292717
H           2.01028909187929   -2.95303416956716   -0.33559708630464
H           2.79282123319698   -2.65061190242466   -1.75272354467092
