    26
        -50.47243367  Gyration_radius:  2.45578626756 Dipole_moment: 4.360
 S           0.44036467269811   -1.00175229259462    0.83410907373996
O          -0.67675473304290   -0.41317513192196    1.55576311841315
O           1.43973133813238   -0.01993964367020    0.46620810164394
O          -0.02944246294165   -1.73378158019754   -0.35335430746674
O           1.08108653722572   -2.04202289425684    1.80286785053104
H           1.67718583602427   -2.55956588393195    1.22959491037813
H           0.53685230573859   -0.83420663109189   -1.65318605046605
O           0.92956629546533   -0.15648183806337   -2.24598374676529
H           1.72631004772930    0.11056486519512   -1.77412257629874
O          -0.94250961404448    2.03598556062357    2.58354082776437
H          -0.80782068919355    1.09542423537352    2.35203311688248
O           2.05450616254836   -3.33155413741586   -0.29549679486754
H           1.84382330093010   -4.26311848131604   -0.38918639174665
H           1.25922690236730   -2.83254172365367   -0.57068253656325
O           0.62400449783910    2.51029336087949    0.44133601936903
H           1.08884361838747    1.64866946615495    0.51668583630589
H          -0.28412113733284    2.16820114600321   -0.73808521389987
H           0.10056675512382    2.57271203154623    1.26410028669662
O          -2.38193309312604   -0.13481803437519   -0.40924268887120
H          -2.19264482290650   -0.95363789051898   -0.87728461352902
H          -1.86725871565960   -0.22541707701140    0.42532678335532
H          -1.88241481611962    2.13765633490627    2.74161738730733
N          -0.82556587379510    1.70269420440737   -1.55164866208109
H          -1.20201610205997    2.38259714357984   -2.20198858208252
H          -1.57704984135765    1.08815356870839   -1.14038495832143
H          -0.13253636849458    1.04906134268462   -2.01253619945042
