    26
        -50.47243378  Gyration_radius:  2.4559511447 Dipole_moment: 4.347
 S           0.71100557050339   -0.04707991956282   -1.17696534707957
O           1.13539160210560    0.96976916986488   -0.23682218544837
O          -0.66492777439536    0.13736824307452   -1.61074841998009
O           0.90670525682045   -1.39147048833814   -0.61032468317847
O           1.58657008609832    0.05129521552139   -2.46319361324312
H           2.45758448806948   -0.28536170706282   -2.18032899552306
H           1.18705317460200   -1.12239624555559    1.02271325290614
O          -2.30607829043985    2.20671436954028   -1.22687362354162
H          -1.67909672920309    1.51009870487128   -1.50648737502582
O           1.29549418628089   -0.74526656026740    1.92334390135610
H           1.74529578278523    0.09056289326275    1.75679684615733
O           3.45285170660458   -1.38690254556217   -1.25477494583031
H           2.58480602736942   -1.59236511485764   -0.85284809144426
H           3.75414187611288   -2.18785236375196   -1.68909568661166
O          -0.80792665416818    2.28463525914051    1.01307852879765
H          -0.00048558432773    1.96799136741787    0.55269376954114
H          -1.44001681223136    2.46548255413121    0.29033036370513
H          -1.17850456976921    0.98507651570565    1.72478259123190
O          -1.86811762742309   -1.53773941991062   -0.00023845220464
H          -1.21013375685795   -2.23942802416663   -0.01054790814328
H          -3.18125347249393    1.87027080576140   -1.42542155515587
H          -1.54861800046083   -0.91610721585829   -0.69380607356618
N          -1.24790130982793   -0.02591374817947    2.10546729784622
H          -1.77984298432263   -0.07701257882727    2.96647517639107
H          -0.24775895851354   -0.34744680606259    2.23322974103060
H          -1.65623723291497   -0.63692237033303    1.34956548704314
