    26
        -50.47243373  Gyration_radius:  2.45590174362 Dipole_moment: 4.347
 S           0.99455451922630   -0.05005260112114   -0.95086074471623
O           1.47392963671119    0.94265851947790   -0.00213392734415
O          -0.32863962415424    0.25850151154872   -1.45289786178126
O           1.02327173645756   -1.39789289759905   -0.35974931448262
O           2.00555244207110   -0.03730539492658   -2.13769463139653
H           1.78642910132942   -0.84407749543796   -2.64075505164831
H          -0.59332041430471   -1.82224546989213   -0.20091101482919
O          -1.57490512337779   -1.84980853814710   -0.17283364024327
H          -1.82932308584841   -1.36452750144239   -0.96557068946382
O           0.45655652908044    3.33076136196553    0.61926600961297
H           0.92533842199658    2.53397075934919    0.30001262768015
O           1.29363862610180   -2.52095084786649   -2.71816470454404
H           1.98307282483146   -3.18686941561479   -2.76397830877074
H           1.12237028540121   -2.35592621914081   -1.76910486254902
O          -1.77206758938672    1.93876208685632    0.01706465059742
H          -1.12138333176416    2.62992292746255    0.24835720940825
H          -1.32170445772633    1.40627502742523   -0.67418077723668
H          -1.82340345617700    0.87694322069742    1.11353067478945
O           0.86943733332832   -0.25932379015192    2.24206995343752
H           0.88164177156580    3.57627384855539    1.44236095102372
H           1.09299630883221   -1.15858374190832    1.98378439967042
H           1.19529313010484    0.28186797892368    1.48672621129104
N          -1.73378071906462   -0.01023133902585    1.72739218133071
H          -1.83484681916026   -0.82508308469471    1.05986766983435
H          -2.42271432953433   -0.03531123501438    2.47011104738409
H          -0.74799371653422   -0.05774768027717    2.09829194294236
