    26
        -50.45038887  Gyration_radius:  2.64357235282 Dipole_moment: 6.839
 S          -1.30670416125378    0.95725170766349    0.16540773068070
O          -1.67507497587605   -0.42579114404454   -0.39677275787584
O          -0.33129354187247    1.59848217798031   -0.65397998750555
O          -0.91797175532146    0.79191079155456    1.55299195263564
O          -2.64069105183761    1.70582139528996    0.09463573914898
H          -3.23339385045898    1.19512981009662    0.75458138041777
H           0.64169385822338    0.24100141832636    1.64380313267550
O           1.72151528580519   -1.37444788915534   -2.35976101153459
H           1.34796199641400   -1.68015381588575   -3.18668066942355
O           1.49266000023540   -0.25281420703608    1.63613260525461
H           1.78582664685406   -0.30557749814456    2.54782818925750
O           3.41784700468248    0.38753075788829   -0.30211680637589
H           2.76897297812600    0.26552223588572    0.40807589343207
H           3.47709923718459   -0.45697594418686   -0.75715411649886
O           1.78895429824065    1.24136619443608   -2.32841964713847
H           2.50206593525119    1.27519021051299   -1.66486825711682
H           1.74147418610596   -0.37634599028503   -2.41835693263674
H           0.98745590027017    1.50386443194300   -1.84933699211833
O           0.32401881774550   -1.90841279661092   -0.19889748633016
H           0.84982880960152   -1.77851413975929   -1.03300453855996
H           0.84218042415680   -1.48046101036329    0.50593523073025
H          -0.86208088834333   -1.09351349798740   -0.33836255060364
N          -3.68451725850890    0.17426915399604    1.86394141191467
H          -4.37231230221801    0.39613270390161    2.57137614154020
H          -2.76247977272056    0.12476904929745    2.28638144944352
H          -3.90303582049076   -0.72523410537721    1.45662087658233
