    26
        -50.46862849  Gyration_radius:  2.47513171393 Dipole_moment: 4.016
 S           0.29929631204968   -0.58585257731118   -2.14791963790157
O          -1.01289317398573   -0.53793726905948   -1.48082154436962
O           1.28129286480698   -1.22047919830515   -1.31199083454318
O           0.67800507943053    0.71025391924613   -2.67146728408285
O           0.09007621429611   -1.51207715113193   -3.42084228945212
H          -0.19201385989120   -0.87364639875965   -4.06725477348053
H           1.11752525987626    1.50797665022651   -1.34555132841597
O           1.28459862810986    2.01370749335013   -0.51234737330861
H           2.03485988232714    2.58270095776719   -0.69310451580708
O          -1.51004426590686    0.73161613144818    2.15100600637632
H          -2.17156916079633    1.15083533365044    2.70151242822236
O           1.52484468816217   -1.88932006619491    1.25537222026002
H           0.02615602160204   -1.85739189263238    1.12162819946820
H           1.70234375433222   -1.78746682283758    0.30149707367301
O           1.33599519705067    0.68401586959182    1.92154179235412
H           1.66175933272898   -0.98664787328111    1.62717578250755
H           1.40217334756620    1.14539895707127    1.06791433476432
H           0.41513940187654    0.77878201315122    2.20008272560007
O          -1.44757747390733    1.79106573607144   -0.21953965084968
H          -1.41453438369187    0.99962380833107   -0.79282752596684
H          -1.53708123886318    1.20189712627794    1.26513885641326
H          -0.56118345481795    2.17718255892245   -0.29220325431145
N          -1.02102871519688   -1.63630556925898    0.90421541719580
H          -1.04678910507329   -1.27576700637420   -0.09231086187186
H          -1.32633068465364   -0.86023449212081    1.52207589085823
H          -1.61302046743058   -2.45193023783760    1.00902012666839
