    26
        -50.46862847  Gyration_radius:  2.47486381804 Dipole_moment: 4.011
 S          -0.90800295447649   -0.80743428702389   -1.88874416105647
O          -1.21894706766508   -1.31475117573678   -0.54147566071086
O           0.50593210926782   -0.60715413647898   -2.05180791889539
O          -1.73698421068505    0.32860824780498   -2.23472613573659
O          -1.34056388948260   -1.96648655522147   -2.88454576066431
H          -2.25335077786777   -1.74574442994617   -3.03705577284892
H          -1.06677271193154    1.51475956304926   -1.37827302493798
O          -0.70752363686631    2.20566966859866   -0.76902625511448
H          -0.71346465685201    3.02609873811254   -1.26524482825884
O           0.16858156646576    0.28428286516992    2.70915631000724
H          -0.06367537574330    0.39700014348519    3.63097086809430
O           2.65425704874188   -0.44268018451571   -0.48412626663112
H           2.08154863758675   -0.48152501423874   -1.27287467165906
H           1.73253753608137   -1.24365437987002    0.39639416858205
O           1.60001107350172    1.70617815050604    0.68763114022180
H           2.48520829935793    0.45081341297489   -0.10361443964913
H           0.83886554293629    1.92108503480294    0.12158386848085
H           1.22615834792258    1.35828061462705    1.50840508388396
O          -1.89187272096579    0.64110346106664    1.16849411059448
H          -1.81879045943378   -0.11760574265958    0.55591589410682
H          -0.66861910142037    0.45161672208322    2.18222856252661
H          -1.66276702994108    1.41088993430474    0.62557813107611
N           0.90267646696266   -1.66940929781938    0.96419965508869
H           1.08434283857796   -2.62546836917547    1.24643968359516
H           0.05318214641740   -1.61660215533060    0.33221414908144
H           0.71803296950585   -1.05787082856340    1.78230325082261
