    26
        -50.47243369  Gyration_radius:  2.45604871896 Dipole_moment: 4.362
 S          -1.01575774298322   -0.50426783655695   -0.78106745847969
O          -0.72623886132676    0.90147019010745   -0.97610013663846
O          -1.44313947457710   -0.79951868564329    0.57743970906389
O           0.14343041772224   -1.32973158370125   -1.15741312489753
O          -2.20222540109431   -0.91305323223416   -1.70627560552122
H          -1.81358637244709   -0.91004813328287   -2.60124036984536
H           1.41177915019677   -0.23809201751749   -1.28987493236146
O           1.99741584258117    0.55059521740014   -1.28007520910393
H           1.42019231860163    1.25465261746736   -1.59595600479954
O          -2.09456799810260    0.86398489346548    2.56062849655978
H          -2.00893575454613    0.24173767478827    1.81102620647431
O          -0.49008644315319   -1.21522584685990   -3.70345203860423
H          -0.47235014309609   -2.06158278797487   -4.15546737922277
H          -0.01404909363738   -1.33629736158480   -2.85723422538278
O          -0.24839983945693    2.30786704323091    1.22868158160959
H          -0.94391856101207    1.99105093321317    1.83752174218015
H           1.03022142544015    1.49639384732868    1.42542472527324
H          -0.51165263946637    1.94752419587729    0.35398806265970
O           0.82421811323000   -1.62531280640072    1.58892978019314
H           1.14894283935867   -2.11440679162014    0.82687652820433
H          -2.06271671549759    0.32791189636252    3.35446508648772
H          -0.09633820765970   -1.38829626867891    1.33190596837737
N           1.86869123482770    0.81546295343101    1.35294112024759
H           2.11161329589911    0.77760373094226    0.32362499666112
H           1.53345992598220   -0.15072583912604    1.60918979407282
H           2.65399868421650    1.11030399757268    1.92151267679315
