    26
        -50.46862858  Gyration_radius:  2.47520190232 Dipole_moment: 4.023
 S          -0.95032526817717   -0.38547731182352   -1.99894789471029
O          -1.40101355083496   -0.99908636994118   -0.73812809961466
O           0.48246019180919   -0.42103824394450   -2.10818799937716
O          -1.55363217428464    0.91515843321939   -2.20357244795961
O          -1.53650335861732   -1.31032191450043   -3.14938166689276
H          -2.39138654217857   -0.91484466049431   -3.28327005129308
H          -0.73068627941891    1.84556835987914   -1.18119375664194
O          -0.28657950625760    2.37867332033737   -0.47664134603606
H          -0.13575600579227    3.24633214314831   -0.85579739826995
O           0.10049662274723   -0.10271095882495    2.72487337323657
H          -0.14684962691248   -0.06893246861040    3.64900541175890
O           2.55619359332159   -0.83534024053544   -0.48739870730038
H           1.47513855936316   -1.56983336543851    0.25891236881052
H           2.01973897871521   -0.67198061107890   -1.28567024099341
O           1.83787124196105    1.29626980834998    0.94164792383349
H           2.52630369490852    0.01758534353805    0.00592319866836
H           1.14991611967278    1.71434821335855    0.39595519123759
H           1.37536419966190    0.91530510986667    1.70025710591473
O          -1.80103904200006    0.80605831546651    1.20693031676752
H          -1.83277466866333    0.13214902545127    0.49907020968881
H          -0.67262428756582    0.27550127096847    2.20928776196582
H          -1.42036215013704    1.58746155347902    0.77742235252679
N           0.56117138290371   -1.91376458406398    0.74782588686438
H           0.56429784839904   -2.91526871440607    0.90162744818589
H          -0.23879009215600   -1.63117139292663    0.11220617816814
H           0.44937011953472   -1.39064008049911    1.63724488145653
