    26
        -50.46862854  Gyration_radius:  2.47485631621 Dipole_moment: 4.024
 S          -1.57442688749476   -0.05040280815266   -1.60125280732606
O          -1.52227808603614   -0.98482965143837   -0.46402585059182
O          -0.27150184667372    0.13323726128323   -2.17953760463070
O          -2.27534575135534    1.16920140882657   -1.25698432882605
O          -2.48023631878949   -0.76633021847716   -2.69186560819077
H          -3.34684516758807   -0.47100426475100   -2.43300143227155
H          -1.18800761622608    1.94716563654526   -0.36212558430783
O          -0.54851861893701    2.36298120284983    0.26708351807589
H          -0.57891216331821    3.30523370758383    0.09226825922287
O           1.05851683303698   -0.69460006379286    2.41781649713650
H           1.15113842012757   -0.90220309623758    3.34771517763393
O           2.25710203274443   -0.35754107738144   -1.49887023121628
H           1.54409955654396   -1.37715219567894   -0.65212917842092
H           1.46657810523087   -0.09168787419366   -2.00501060160879
O           1.98832930092031    1.28513002781556    0.58183579543513
H           2.36316335743341    0.35136307184861   -0.82203695834927
H           1.13283076374374    1.71793354569812    0.41839109307548
H           1.84136741437363    0.68662400993283    1.32662624270551
O          -1.29644825893954    0.26974447045675    1.89769823092741
H          -1.54386946577152   -0.22718762958181    1.09268409306018
H           0.13647259831563   -0.31679764709168    2.30094127525284
H          -1.12874453934990    1.17066776106127    1.58117895477193
N           0.87803919648519   -1.93972612119091    0.00562532665880
H           0.98198282351486   -2.94079014282045   -0.11162037177534
H          -0.10684448423157   -1.63075781564330   -0.23596448358809
H           1.06235880223612   -1.64827148747061    0.98456056714654
