    26
        -50.46309547  Gyration_radius:  2.3940345093 Dipole_moment: 2.607
 S          -0.21528590148318   -0.86412995630021   -1.28405269331412
O          -0.74695992275927    0.49736629046508   -1.08170691022249
O          -0.05029259365414   -1.50974587105457    0.01670826051164
O           1.01294614214246   -0.83012943565152   -2.04595137645268
O          -1.27156184502135   -1.65285241399978   -2.09171433776555
H          -2.01303709985951   -1.75443422400025   -1.42851273621333
H           2.26657238655801   -0.18503610315207   -1.32267234550368
O           2.97752765400444    0.28287869610321   -0.80401365654554
H           3.79649342708133    0.12090802612521   -1.27448965531798
O           0.62533838796349    1.60064774271720    1.87010235470653
H           0.87321989519535    2.01844243546770    0.93359746285438
O           1.11948438280846    2.25332030277650   -0.49963750621841
H           0.40369608410961    1.69460217313455   -0.88806102869874
H           1.94522622883053    1.77686481020169   -0.69930687455481
O           1.82272775994766   -0.54381263210833    1.51218340502647
H           1.16325186350734    0.66156347349733    1.84570835206558
H           1.11580648942086   -1.03965014247536    1.01820003273059
H           2.47239197140107   -0.30356301125984    0.82430385103634
O          -1.78812446481580    1.03821095379759    1.19474646870051
H          -2.28921021438116    1.84193995470621    1.04019521836500
H          -1.45663559802925    0.74795800213872    0.29626809995711
H          -0.36021818414301    1.36246294357448    1.77359621796584
N          -2.81916541907948   -1.79625849891926    0.00752527722972
H          -3.35951842246982   -2.61042595938729    0.26954051034684
H          -3.30591690814008   -0.97251662298241    0.33669191304286
H          -1.91875608903676   -1.83461092334539    0.48075167625982
