    26
        -50.46862856  Gyration_radius:  2.47491794202 Dipole_moment: 4.019
 S           0.35469579917612   -0.60217609010929   -2.13452197824661
O          -0.97869620925813   -0.37876898887690   -1.55018715283799
O           1.18539278204560   -1.37000832437760   -1.24770196069678
O           0.93941700622882    0.63249950578418   -2.61519494650581
O           0.10286262081900   -1.48456904059194   -3.43088411184173
H          -0.04951962283433   -0.81020075359103   -4.08450039487272
H           1.39849827556022    1.34833711118337   -1.24916580049970
O           1.58033101993567    1.81744464194709   -0.39798182379096
H           2.41397422120576    2.27511728913105   -0.52010397004418
O          -1.53187670669958    0.91645144337730    2.06408133802736
H          -2.16395568143392    1.41853780830026    2.57864420355731
O           1.16591272199728   -2.09226178050615    1.31660297178620
H           1.41764007567105   -2.00682643430009    0.37792704345421
H          -0.30210951813810   -1.85180213646990    1.08932608318223
O           1.28956032148428    0.47674866227303    2.01362138743261
H           1.40119535946422   -1.22064126766153    1.71248553960322
H           1.47356282558962    0.93007865500794    1.17309203524535
H           0.37455131187062    0.69627188750191    2.23514365571239
O          -1.16970265920290    1.97721587731160   -0.27913724236914
H          -0.23585155100587    2.23747804596340   -0.28957971151280
H          -1.20893618941754    1.19350090219899   -0.86261727125290
H          -1.43605571727356    1.39340895407506    1.18672462993601
N          -1.29259394170426   -1.48597917898339    0.81003738989524
H          -1.52794265269073   -0.68047338354417    1.42073908805977
H          -1.99673163155415   -2.21268157236194    0.86274394628930
H          -1.20362227984724   -1.11670185266364   -0.17959292770111
