    26
        -50.46309544  Gyration_radius:  2.39403526143 Dipole_moment: 2.607
 S          -1.04977033285834    1.12327645311946    0.28164030301765
O          -1.29815745347693   -0.08499968342183   -0.52813574665122
O           0.37461537141434    1.44670610764219    0.23115488779962
O          -1.53007668730449    0.94578271589884    1.63368755677990
O          -1.83840652042098    2.28180206714865   -0.37085510817579
H          -1.33508545010080    2.42727944651468   -1.22255716848644
H          -0.74758811492992   -0.10934419723181    2.51961141995305
O           1.50913004048317   -2.03511838438813   -0.17764838993551
H           0.56948268325726   -2.31056379610208    0.21559281854101
O          -0.22569012270260   -0.82546772295924    2.97598879052896
H          -0.46574819453467   -0.77645771096350    3.90243351779952
O          -0.79622918468771   -2.31553605889876    0.76688010496161
H          -0.70093923509210   -2.02114949751014    1.69050930354501
H          -1.17341102591565   -1.53711308625266    0.29014678930327
O           0.51475078507276   -0.79161076468360   -2.19343755971186
H          -0.19809409064667   -0.42060166520781   -1.59718691197774
H           1.27514973037485   -1.55424458801599   -1.04433430408988
H           0.06912453592760   -1.40610624355328   -2.78063353868747
O           1.93704201071492   -0.21145819792867    1.45061551146923
H           1.82467351604145   -1.26522351202899    0.51517595014957
H           1.44615668549135    0.52535753194400    0.99695588742291
H           1.35838379832218   -0.46206119623058    2.19581980440066
N          -0.12750269615981    2.38157347999776   -2.34202565625341
H           0.20938155294231    3.23347763530242   -2.77144418191487
H          -0.11554690592782    1.64819468800137   -3.03911556746059
H           0.51435529498930    2.11360618973866   -1.59883850239555
