    26
        -50.46309543  Gyration_radius:  2.39394544291 Dipole_moment: 2.606
 S           1.49980953064602   -0.11967978304990   -0.42493309815808
O           0.73048354206795   -1.32034491387672   -0.10464367707512
O           0.90778044266755    1.03351575563211    0.27990527798709
O           1.57399285946119    0.12809580688964   -1.84732809667507
O           2.93636073020430   -0.29943793827449    0.11731511123354
H           2.77208071188275   -0.61565262962904    1.05167371782822
H           0.19018293963562    0.20020825371397   -2.61589797114587
O          -2.47429912766761    0.43625823600453    0.37139649863916
H          -2.04728911762754    1.21603486740323   -0.19669906176368
O          -0.72757793800562    0.27821540409412   -2.99681469621398
H          -0.61970610197630    0.26133950492028   -3.94885919536065
O          -1.14623553765368    2.07209766896026   -0.98744065329161
H          -1.10144545065078    1.65484970224107   -1.86635333133913
H          -0.28457341236751    1.85214033596481   -0.55774438662740
O          -1.66081154375968   -1.40522761883435   -1.08005510181137
H          -1.50652300399670   -0.94546673057330   -1.92731923876200
H          -0.75045938817694   -1.52072921730624   -0.69567648540955
H          -2.22625609359330   -0.43479185355704   -0.22213098586917
O          -0.69323410490858    0.54856200009106    2.21897474975035
H           0.00794843041654    0.68216884388416    1.51765376475114
H          -0.75218918760501    1.38236612776080    2.69046173802897
H          -1.88243300440460    0.38978164321090    1.19895544339560
N           2.00438152605034   -1.23965060867672    2.36883338996457
H           1.55022096620731   -0.61957885130511    3.02695826631400
H           2.41054700094468   -2.00878044272453    2.88566689476661
H           1.28924436225519   -1.60629355300029    1.74410109691685
