    26
        -50.46309542  Gyration_radius:  2.39397806828 Dipole_moment: 2.609
 S           1.50465017104642    0.19147810881199   -0.37555530835084
O           0.71199511873531   -0.85206764103703   -1.02267100120926
O           0.91838313353908    0.49229396426310    0.94470959391093
O           1.60675622627675    1.38891152291444   -1.17926296526046
O           2.92900634034646   -0.35705839717886   -0.12995120571837
H           2.74442056050212   -1.24751583833338    0.28601117127102
H           0.23832221430742    2.02488916053374   -1.66199325218529
O          -0.67130224587119    2.37506378207932   -1.87051348064402
H          -0.54619600807532    3.05282843437228   -2.53634316453671
O          -2.47426273928456    0.08755611111976    0.56617298248837
H          -2.02649194067328    1.02726093856260    0.73828723128752
O          -1.10003464021015    2.16989606493707    0.81284516983674
H          -0.24899019858920    1.68898355685615    0.95372851562452
H          -1.04500447478349    2.51485452871109   -0.09645036825293
O          -0.72424574905152   -1.20926942505280    1.92750842626911
H          -0.77987071359588   -0.97417323036274    2.85623130986775
H          -1.89742470425228   -0.55569242144214    1.10542856222302
H          -0.00871812234918   -0.62543052004558    1.54219787197361
O          -1.66191914253813   -0.15286644213257   -1.76689642735003
H          -1.48664091748561    0.77347926773592   -2.01985693608646
H          -0.76028486933940   -0.53038998016818   -1.58227340994453
H          -2.22877652816733   -0.09036665391762   -0.47284936987780
N           1.94627849925904   -2.61378497222831    0.74384705553075
H           2.33284754353737   -3.52641418351761    0.54095404316046
H           1.23433173461133   -2.39795499598451    0.04908639453534
H           1.49317146214820   -2.65451074948257    1.64760855145790
