    26
        -50.46309530  Gyration_radius:  2.39388081293 Dipole_moment: 2.608
 S           1.12962527188068   -1.05209755411835   -0.25160971061530
O          -0.19806772874091   -1.25184242048500   -0.82893256961390
O           1.00934895087173   -0.20666572265667    0.95181702390747
O           2.06340279989225   -0.47719029691729   -1.19383986570014
O           1.67622449154511   -2.42404700494992    0.20573985721365
H           0.90451193650823   -2.79870197752264    0.71941738246628
H           1.61038859699672    0.87341394949709   -1.88781524050659
O           1.25909584684455    1.74149838686483   -2.22907341138334
H           1.82185049141882    1.98143742700015   -2.96667983429893
O          -1.55893727106719    1.98082702438850    0.30597897321712
H          -0.55352210930491    2.28985305501286    0.39285666386451
O           0.91699372397934    2.36097776715495    0.40278122208602
H           1.17860803672024    2.39885811716161   -0.53472280798181
H           1.12826660349273    1.43925000708291    0.68805049213819
O          -1.31439018196705    0.06037891506297    1.99431260882777
H          -1.14076008211200    0.40639350637806    2.87241997626654
H          -1.63631007227275    1.22197945643827    0.98082331450582
H          -0.41768709516560   -0.15164881289644    1.60392296851775
O          -1.28199971460189    0.84399836685776   -1.88317806044622
H          -0.95787498487415   -0.04058245111115   -1.56386527845922
H          -1.56574776705403    1.51418067586044   -0.67048282099940
H          -0.48325512841155    1.27736783497867   -2.23971868054471
N          -0.63047288338069   -3.02142525797915    1.27606745693929
H          -1.06251619111537   -3.93573687808826    1.24420961927338
H          -0.96646274426587   -2.47259612512955    0.48745580255029
H          -0.93031280584837   -2.55788000791544    2.12406490871153
