    26
        -50.46309541  Gyration_radius:  2.39401752181 Dipole_moment: 2.607
 S           1.53417116652870    0.26381919106869   -0.14833522851248
O           0.76897504021145   -0.25988233569358   -1.27797674931521
O           0.85467300065209   -0.10816344870164    1.10755816463298
O           1.72782684836208    1.69445622274533   -0.22544881477360
O           2.92127681511668   -0.41891014199131   -0.13790265622197
H           2.68275847793359   -1.38453282860873   -0.23982622389425
H           0.41601281303697    2.56787797580611   -0.39041078228379
O          -0.46612371333859    3.02914576741538   -0.44054146452451
H          -0.27411501322452    3.94039991865549   -0.66645422519196
O          -2.50714094000724   -0.06042109072474    0.40178720828219
H          -2.04948876043803    0.63553778073019    1.04992444138372
O          -1.10273955755462    1.52595414522910    1.74171974617346
H          -0.97042037638735    2.27859818789976    1.13774601193786
H          -0.27756487012916    0.98896867417665    1.66256757707370
O          -0.90033742238321   -1.97065407990812    1.00784291849617
H          -1.99033456715887   -0.92161130975088    0.57034550237199
H          -0.14301253187026   -1.31659598270331    1.00854833577096
H          -1.01975881766446   -2.23175018429350    1.92354691834972
O          -1.52522692525975    0.85822101165025   -1.68464772787641
H          -1.30802472850757    1.77332633122334   -1.42332955551867
H          -0.64985121840213    0.38598201873521   -1.67086799003355
H          -2.18733464656539    0.29446961860884   -0.56932784901754
N           1.81550575129648   -2.74357789003322   -0.58151156528669
H           2.19263574201814   -3.45502543662782   -1.19406956844751
H           1.16858440881463   -2.16390983798749   -1.11207877652028
H           1.28905404500024   -3.20172225682968    0.15114234296372
