    26
        -50.46309529  Gyration_radius:  2.39388736977 Dipole_moment: 2.604
 S           0.56021387126906    0.80439821252100   -1.21856993507288
O          -0.70922902881435    1.19164179261278   -0.60653957429133
O           0.79782550196641   -0.63016448715720   -0.96782980610403
O           1.66983546579319    1.60135731525352   -0.74537224326739
O           0.44210422396627    0.98824763871056   -2.74905444704079
H          -0.42569495476919    0.53420324259089   -2.95028055889749
H           1.86704841824621    1.65877003221227    0.82584153940730
O           1.93743271212530    1.59001134744800    1.81767350751079
H           2.56117828606760    2.26665504323310    2.08480300682685
O          -0.53978195567072   -1.27076231921905    2.13159253668491
H           0.49729948831907   -1.30299149047523    1.93908597532989
O           1.85001005631448   -1.10083245196558    1.39326821154776
H           1.63050016338242   -0.98351566396275    0.43743897450522
H           2.12026853042723   -0.21634012949521    1.69863490543139
O          -0.74583030057531    1.19787044186986    1.97738463757271
H           0.16909469161279    1.49075110813407    2.15130553810696
H          -0.84801993285784    1.28846405668046    0.99201145031948
H          -0.73104940023657   -0.20533064440725    2.14898318108910
O          -1.19479560074838   -2.05717893949291   -0.22453265836082
H          -0.95521139166865   -1.61673438477239    1.26857424911919
H          -0.47403317434520   -1.47666371213842   -0.60513402791475
H          -0.90460035995105   -2.96043988904721   -0.36904063660498
N          -1.91422617940439   -0.13928212197945   -2.73367910172302
H          -1.99817537340826   -1.13548409115622   -2.57743291838157
H          -2.70239433301860    0.16195919951411   -3.29197542319623
H          -1.95976941402783    0.32139091453012   -1.82715639254329
