    26
        -50.43839911  Gyration_radius:  2.49825561689 Dipole_moment: 4.156
 S           1.65536664496427    0.07828798109193   -1.27547147745864
O           1.45693954133642   -0.95485659202101   -0.30057549968742
O           2.35823598728610    1.24975065883984   -0.72564363297639
O           0.42615008142749    0.49572685497066   -1.93888225489723
O           2.59768536624099   -0.49225523486007   -2.39849804451446
H           2.64429021827550    0.23014991809785   -3.01646204594327
H          -0.60534298246565    1.10937141003030   -0.94560044430024
O          -1.14732195101315    1.57491100021784   -0.24209639603850
H          -1.70749008468538    2.19924303822141   -0.70754133130252
O           0.70298759821981    0.43254760397298    2.89001517312424
H           0.45601603319935    0.76570895885538    3.75475916725919
O          -0.51383511827001   -2.56568236125424    0.39937630065176
H          -0.11058291711082   -3.27392644411149    0.90384706631437
H           0.22899733445546   -2.02036182959318    0.06160085435601
O           0.98737444705120    2.16097950052713    1.08904759452984
H           0.97713830867708    1.46004872436100    1.86936618557107
H           1.67571575372075    1.79480642475179    0.33344696618123
H           0.08755507930241    2.07160165178230    0.64173518608776
O          -1.44125279265743   -0.43927343022374    1.73604615101635
H          -1.22046813586791   -1.28810347099712    1.29163823855324
H          -0.11766932733195   -0.00291600204826    2.50260048286829
H          -1.55930094919338    0.20180415752889    1.02202516220902
N          -2.10679489176147   -1.28263473989972   -1.96347482161781
H          -2.65845108526562   -0.68951870228788   -1.35423228662554
H          -1.28135610956270   -0.75602882020816   -2.23004847806938
H          -1.78458605896889   -2.05938026574563   -1.39697780529113
