    26
        -50.46309544  Gyration_radius:  2.39402007731 Dipole_moment: 2.607
 S           0.14776183476710   -1.55337580639353    0.08415637665734
O           0.67423085572264   -0.71172313950442   -1.00748511243527
O          -1.01184826771982   -0.89206349137926    0.67912598573088
O           1.17911118155348   -1.84354176269577    1.05489648266230
O          -0.31873263940874   -2.88477240923540   -0.54816358887463
H          -1.12093274833867   -2.60066584405305   -1.07320173437411
H           1.69092298713004   -0.61749395826793    1.91825970658022
O           0.14192666786756    2.53568115995584   -0.01393072341832
H           1.10585935360134    2.11527927078577   -0.10056959366377
O           1.97982204728749    0.22212935688188    2.37112655721226
H           2.52512936510856   -0.05147759043916    3.11009776400453
O           2.26036828601782    1.20259384971426   -0.15599840892495
H           1.82956593855743    0.40874810203185   -0.55563624946173
H           2.43473107347085    0.95357067380932    0.76942147229986
O          -0.50541749363066    1.26106263306808    2.01511088102014
H           0.36243320353364    1.01903392085524    2.39081804288254
H          -0.21832606169174    2.08292564055317    0.90094245643408
H          -0.82572365273855    0.42505743862644    1.58145633475368
O          -0.84934239257068    1.13211736673743   -1.92315981601916
H          -0.33248727198758    0.34091858828084   -1.59421591922826
H          -0.38050263292624    2.09615561719912   -0.76963026370568
H          -0.44888243529550    1.37469243902140   -2.76084881257775
N          -2.39525044666105   -1.69801565871695   -1.59817779408635
H          -3.32207226595121   -2.10020661531516   -1.65063128939826
H          -2.27816018180035   -1.06684897143921   -2.38028475884805
H          -2.32418432385165   -1.14978082008162   -0.74347799521293
