    26
        -50.46862828  Gyration_radius:  2.47538516625 Dipole_moment: 4.008
 S          -0.32827261175468    0.22838999461311   -2.21085686432492
O          -1.23728442751611   -0.50277423644166   -1.31177030385137
O           1.04388842969051   -0.10273311468673   -1.93918556074535
O          -0.62928312345072    1.64495997716625   -2.23545712511692
O          -0.66410541091082   -0.30069751559025   -3.67018043395912
H          -1.35585041234469    0.29997511543732   -3.92692115347243
H          -0.03434592912615    2.15495259843536   -0.83053161660587
O           0.24404072943921    2.43035581210384    0.07751771293971
H           0.63571592433462    3.30034637069327   -0.01733649087454
O          -0.76896705251546   -0.64869925890924    2.53612753350157
H          -1.28274352905730   -0.74084942976711    3.33859352460565
O           2.42020280789204   -1.26969904905759    0.02107855997637
H           1.06150980461526   -1.87782015700828    0.24256447155182
H           2.19044555581947   -0.84058617658911   -0.82440170353867
O           1.62989758868663    0.65010290558684    1.69184079773393
H           2.36967182242759   -0.54323893085164    0.68552881874249
H           1.21863985706929    1.30811004738117    1.10555214520517
H           0.90161679042526    0.24105304475210    2.17847452003337
O          -1.94163384725673    0.93360331042817    0.84282333733630
H          -1.85400638013240    0.43380420565843    0.00687935178275
H          -1.27582903483307   -0.01663334261691    1.94440113669359
H          -1.33146955568310    1.68013558272774    0.74119868509413
N          -0.00070776370205   -2.09920576958389    0.36671471438022
H          -0.30173392030578   -1.74671864510277    1.29537057503889
H          -0.19986169654411   -3.08695258546660    0.25997565829868
H          -0.50953461528553   -1.52918076318186   -0.36800031041916
