    26
        -50.43839763  Gyration_radius:  2.49536287375 Dipole_moment: 4.118
 S           1.76779169818877   -1.02226641269966   -0.42031380019396
O           0.97942468494105   -1.20742875304226    0.76364748816793
O           2.75733112767598    0.05839939413013   -0.27709172793335
O           0.97036811055824   -0.81938579170296   -1.62367186119760
O           2.60224983292300   -2.33546754526291   -0.65411092180768
H           3.04828100458351   -2.15607329570933   -1.47572375502324
H           0.08952579074629    0.46101177627815   -1.51404331435811
O          -0.35381230172139    1.35005820618320   -1.37836563754890
H          -0.51657397555830    1.70302914230256   -2.25540859212052
O           0.22283958148306    1.84184203355925    2.36082063641925
H          -0.04071131918092    2.65696754900436    2.79203977659745
O          -1.55309575794660   -1.68327679037199    1.33602106254200
H          -1.56397154806795   -2.03482497336075    2.22763562762099
H          -0.60624516501984   -1.59895672611445    1.09208914219046
O           1.52053966902054    2.11266660223329    0.22714369996495
H           1.07894364020986    2.00517263609002    1.17310407798874
H           2.14774203701363    1.24380211079341    0.05866172560520
H           0.76820612347962    1.98133121599086   -0.43198929111770
O          -1.81290997370478    0.96488348078659    1.02723879290652
H          -1.51893588948802    1.08225121281388    0.11369197966324
H          -1.86405786561258   -0.00740163742993    1.16277534937375
H          -0.60655128192127    1.45554414328313    1.94118210566679
N          -2.00174075359384   -1.67887469055609   -1.75760402856421
H          -2.13002245799681   -2.03450455349666   -0.81682467699234
H          -2.38379641892615   -0.74018525601345   -1.76702519245476
H          -1.00081859207038   -1.59831306766935   -1.90387865540504
