    26
        -50.43839791  Gyration_radius:  2.49553533067 Dipole_moment: 4.111
 S           1.12667715477774   -1.73838583016008    0.24832786575181
O          -0.30710956449534   -1.69353228159206    0.24837274073739
O           1.69928197852077   -1.51093973858382    1.58546623355496
O           1.73623220367199   -0.83622637964473   -0.72095988306895
O           1.56380990586050   -3.19342153866929   -0.16041110297253
H           2.51270900571239   -3.12493872825226   -0.19135240341241
H           1.37914897806219    0.65110054964642   -0.42590242310957
O           1.17066891170951    1.57179885971371   -0.08764417894976
H           1.86976322435042    2.14069798550659   -0.41606550993141
O          -1.56156648652789    0.76324431364292    2.44805566147095
H          -1.93398913689134    1.45299930214788    3.00069438749260
O          -2.19645493246208   -0.70217050991548   -1.30543414609158
H          -1.47923144468436   -1.13815014173555   -0.79676455420360
H          -3.00097893364431   -1.17110093291499   -1.07833715796868
O           0.94690439489086    0.69817767127282    2.33267340102154
H           1.28286260109021   -0.30707811180472    2.10219577815376
H           1.07692440485659    1.18768064464068    1.46009853975914
H          -0.09230346225796    0.65915284325532    2.47379793989705
O          -1.66756188460265    1.57842460876880   -0.00459538497498
H          -0.73218170393942    1.70687157670796   -0.21266027122332
H          -1.95757670712048    0.82118869299931   -0.56054345841682
H          -1.71242717366733    1.04487421875929    1.49350857169574
N           0.14258028947425    0.27395579775122   -3.13309068502763
H          -0.76433696113934   -0.14455972962841   -2.95860331308043
H           0.09067884232387    1.22829780778114   -2.79558382568090
H           0.80747650614020   -0.21796096967649   -2.54524281140079
