    26
        -50.43839749  Gyration_radius:  2.49497659851 Dipole_moment: 4.107
 S          -0.96295623380593   -1.84891123156099   -0.03417899081082
O          -1.63349915544468   -1.84256152720707    1.27636631037735
O           0.45623481815854   -1.66977180893574    0.07324369449376
O          -1.60231713599869   -0.89538731645522   -0.93262392250795
O          -1.22468693591409   -3.27708334174325   -0.64019970765351
H          -2.17223746582031   -3.29533650047810   -0.72940720360051
H          -1.40958705555712    0.57066934217554   -0.44135453226809
O          -1.31214612709125    1.45739506980121    0.01643462278033
H          -2.04453534372670    1.99651563110826   -0.28889564488806
O           1.33599108628471    0.59374589679695    2.62200621712646
H           1.60605958670800    1.24109315329125    3.27612351342643
O           2.32583366289360   -0.33397861316075   -1.22534760161613
H           1.62658965527441   -0.89068381428289   -0.81990704272726
H           3.15798103210601   -0.75291615079088   -1.00015719304995
O           1.50230786000887    1.71167418647241    0.29517134044934
H           1.51305977114152    1.00314685819417    1.71966041660393
H           1.89692407049886    1.05850683150252   -0.32459541999145
H           0.57230983904664    1.77925252377981    0.03969318872585
O          -1.14288565306166    0.31620357515783    2.32748857912047
H          -1.26974841275027    0.89551073902090    1.51129329781029
H          -1.36601330842648   -0.67867766128605    1.95914817468445
H          -0.11431585706307    0.35387998322888    2.53370618120419
N           0.00910355022038    0.64376980617658   -3.08213861906832
H          -0.63701847877617    0.02477421607914   -2.60355274782340
H          -0.05149979471107    1.54931064625160   -2.63094115422827
H           0.94105205580715    0.28985950686304   -2.89703575656664
