    26
        -50.47250304  Gyration_radius:  2.48707681012 Dipole_moment: 2.873
 S           1.13896292304402   -1.65424260787550   -1.05260148657373
O           0.10822526514601   -2.50886549302101   -0.47595882340372
O           1.57755034728337   -0.63098274737830   -0.12301114347213
O           0.74981362100251   -1.13019539470365   -2.34781871668576
O           2.39693013784664   -2.58141749626622   -1.31276569022875
H           2.08301902234933   -3.11709136852397   -2.03329377042527
H          -0.37629287760772   -0.00775887745338   -2.24126396097013
O          -1.03095161478629    0.73365381355358   -2.15206202645569
H          -1.50877505739538    0.76464053830042   -2.98216030899274
O          -0.14710746059103    2.36268162821094    1.40880577652197
H          -0.03331541625572    3.27010120523455    1.69195607317790
O           0.92189401652826    0.02915562976671    2.41122353356445
H           1.41382461486590   -0.21688558237961    1.60609410675154
H           0.60738535690573    0.93632994685359    2.24268523147011
O           1.11648540067062    1.90563825326391   -0.82241173288881
H           0.37970918615431    2.26157095787461    0.56330613940229
H           1.45430658410968    1.00870441878916   -0.62588308297327
H           0.40448903764379    1.76008706625922   -1.46255353938887
O          -2.18086641569022    0.85397635261071    0.32459327682675
H          -1.86825778190802    0.81907525897686   -0.59925415882592
H          -1.69210007077008   -0.50047120202194    1.01337253304886
H          -1.60835410210418    1.50783516255655    0.76477679230714
N          -1.14186242440994   -1.29141933153068    1.46078068577391
H          -0.35545415588381   -0.83991439484648    2.01879648369123
H          -0.67842090212400   -1.85230677953470    0.68829522178876
H          -1.73083724402366   -1.88189895671603    2.03635258696143
