    26
        -50.43839743  Gyration_radius:  2.4948446556 Dipole_moment: 4.106
 S          -0.52459644847761   -1.22720070222798   -1.60149860428043
O          -1.90002690788989   -1.60087681358543   -1.23309713569164
O           0.42908957620679   -1.57032838519351   -0.58635557367024
O          -0.47155561758308    0.17459336797923   -1.99809487102971
O          -0.18431530000677   -2.06769035958995   -2.88725712130792
H          -0.81865446126547   -1.74675863640960   -3.52029171343622
H          -0.78660176453905    1.11888522931865   -0.79932386976667
O          -0.83711252963796   -1.10180786420868    2.66397108754416
H          -1.13556790935663   -0.93921692212712    3.56083086107650
O          -1.09936283988089    1.62369622795346    0.00855197475022
H          -1.47727866126411    2.44235664807964   -0.31894606609696
O           2.56208253940017   -0.45966071008513    0.50135928826210
H           1.82350552818586   -0.88689719973549    0.01641754645564
H           3.05626874909007   -1.17316913066737    0.90802671661369
O           0.75618897507670    0.82651908002700    2.00468859516361
H          -0.13452835172498   -0.40957525690493    2.46301678386597
H           1.51994615097846    0.43496956434883    1.52532140144132
H           0.23993074649306    1.28975484922469    1.33115795735903
O          -2.43394528634247   -0.42230835931368    0.84816451673466
H          -2.02705940368182    0.46874458283523    0.60673947926974
H          -2.26394784327899   -1.01857825219045   -0.04116511252670
H          -1.82122224751069   -0.80687385988006    1.60878580664356
N           2.02700922718298    1.92021976841964   -1.45340523527134
H           2.61750155043869    1.24806759169843   -0.97637901128575
H           1.28392607650194    1.39061458801973   -1.89729839542116
H           1.60032646288333    2.49252095421496   -0.73391932539801
