    26
        -50.43839775  Gyration_radius:  2.49527512755 Dipole_moment: 4.111
 S          -0.57180108560683    1.98256671086482    0.30208573852508
O           0.54189296347819    1.56890134130776   -0.50198511471856
O          -0.20931446262723    2.16722323895731    1.71700863059777
O          -1.72876873665339    1.10297965237443    0.18864685053960
O          -1.03530176568633    3.39725475163364   -0.20702743475545
H          -1.79940352931520    3.57301617781519    0.33277301118800
H          -1.39686765097525   -0.34320912022434    0.66357542576606
O          -1.10453172934367   -1.20566578750589    1.08333874881373
H          -1.90260299902847   -1.62786670960074    1.40756587897568
O           2.66902414562700   -0.66300257667927    1.20423407225406
H           3.24142905407246   -1.30845282170065    1.62335391854767
O           0.96333978231565   -0.14470942859671   -2.46497507257733
H           0.75822769415962    0.54751915747295   -1.80020330713998
H           1.77248836046695    0.13655116003920   -2.89497834180766
O           1.15842548136117   -1.92552085793095   -0.47372351509503
H           1.10595798746925   -1.38742223857390   -1.29480932530278
H           2.16952080243659   -1.14841922578934    0.47752815785543
H           0.28914860883743   -1.84593264754272   -0.05807931339644
O           0.64845430703562    0.02071655408899    2.53051670930933
H          -0.03724213513822   -0.57419066115131    2.09016227640732
H           1.54929778174047   -0.18213140003751    2.03148349826635
H           0.33134305038964    1.01633130533032    2.24033082952578
N          -2.08001562895900   -0.81157026465105   -2.22005469764387
H          -1.22786487737708   -0.61498805730708   -2.73323318269232
H          -1.91453234133762   -1.66605090899497   -1.70060811957408
H          -2.19030306736109   -0.06392733358360   -1.54292633186782
