    26
        -50.43839830  Gyration_radius:  2.49674989267 Dipole_moment: 4.137
 S          -1.18596714197439   -1.62075729764446   -0.56828481239027
O          -2.39213184373994   -1.37577625294908    0.24002478057377
O           0.00031152335624   -1.72697680122686    0.23115435090415
O          -1.08292148897339   -0.62986014267513   -1.63250225800736
O          -1.42030351026079   -3.00832920859813   -1.27159058449115
H          -2.18526060530716   -2.84078609408622   -1.81274378712145
H          -0.85071092421823    0.80337562144146   -1.06700549760789
O          -0.80601689535356    1.68704715111068   -0.59535083403566
H          -1.15946704627386    2.33431615996368   -1.20884570101956
O          -0.03960548182856    0.52709255207788    2.95754762655408
H           0.00294032972149    1.15582064852930    3.68052566905081
O           2.49679370702558   -0.87970429330821    0.09266386885887
H           2.99964741851863   -1.43487406959005    0.69069404496913
H           1.59104512959350   -1.25706281299371    0.07397989557290
O           1.48389038145781    1.40307098317303    1.05917990337364
H           0.84002140287162    1.63313008789282    0.37565115038152
H           0.64099854336201    0.82219786321713    2.27732717842816
H           1.98430508803693    0.63693391066883    0.69968663496998
O          -2.04452266782687    0.72261744656666    1.45611998799916
H          -2.25915766162480   -0.23645900627651    0.99564763396953
H          -1.27166763349228    0.57343541364836    2.14950257940753
H          -1.62643220683487    1.24855019974432    0.70347783211603
N           1.66469822353878    0.36818168422341   -2.65071736608731
H           2.28349469855797   -0.14280109038359   -2.03101304991136
H           0.75141643334498   -0.06723020168707   -2.57323213214148
H           1.58460219832362    1.30484754915504   -2.27189710432124
