    26
        -50.43839809  Gyration_radius:  2.49624862476 Dipole_moment: 4.131
 S           1.72104178233906   -0.30765510704771    1.13788306008191
O           2.56072302486489   -1.04445129521689    0.17875920049227
O           0.46308474747896   -0.95375956898675    1.37795557384085
O           1.59015612620683    1.08484578279841    0.72704263304646
O           2.52569659255941   -0.30028246431369    2.48982990173813
H           3.31309710369970    0.18326322242499    2.26115776251673
H           0.80517452156301    1.21858920354513   -0.61220916596118
O          -0.85389014643717   -2.42895089236638   -1.54797719456715
H          -1.26094750232286   -2.80118865466520   -2.33257160346659
O           0.38124781294155    1.18090149195038   -1.52006293320689
H           0.66343843420795    1.97473890774294   -1.97883085837683
O          -2.05543448275949   -0.21361361178524    1.65566505053684
H          -2.49890332017015   -0.93908842236888    2.09808751931470
H          -1.10318147862582   -0.45068222150715    1.63993792605233
O          -2.05128334702799   -0.19684877514354   -1.02226545973387
H          -1.40130002856405   -1.62387397425325   -1.29263394545979
H          -2.19203228784738   -0.15493406529973   -0.05014999644680
H          -1.35861466956937    0.45101549456829   -1.20980450391666
O           1.30441545600740   -1.19827877373363   -1.91932455385817
H           0.46608464586711   -1.80740729081363   -1.75460887103031
H           0.94717449775470   -0.25482955857085   -1.93286062187347
H           1.90622411207401   -1.21964540254782   -1.01685563137110
N          -0.98843328469196    2.70214889073745    1.28805643276496
H          -1.29189705771330    2.75850119353921    0.32267133401398
H          -1.55647361671530    1.98713186558860    1.72870191783089
H          -0.03516760509924    2.35435402573059    1.28440699703646
