    26
        -50.45234084  Gyration_radius:  2.45883535169 Dipole_moment: 5.679
 S           1.84488901081948    1.08509342843047    0.42664227277975
O           0.59502811412598    1.28198356778370    1.33027535398005
O           2.54731409121618   -0.13201262199039    1.01934940690168
O           1.35391873062196    0.75085695916221   -0.90145605837862
O           2.67303413675707    2.23114578364747    0.49916593256129
O          -0.98067234852391   -1.75342345783444   -1.09873705318056
H          -1.41703444824634   -2.54901588079784   -1.40564151914270
O          -0.64160323531246    2.15971655793712   -1.90386533545940
H           0.18391744978991    1.73168973021884   -1.58680946304789
H          -0.50122950743763    3.10431757827728   -1.82833916195315
O          -1.56726119652479    0.61319521964279    0.12733591160573
H          -0.26229008142875    0.98660462982241    0.87117157190887
H          -1.50171205544398    1.22747088749473   -0.62925901730307
H          -1.45092209526982   -0.27678368962255   -0.25444453780018
O           0.28495869188498   -0.50047104928508   -3.03315088772597
H           0.94936429587194   -0.15866541517279   -2.41215452149020
H          -0.50942722784129   -1.36231372250302   -1.88127437302835
H          -0.24444314198391    0.26621906206619   -3.27587676142478
O           0.74722679938322   -1.88912057494786    1.03638846452103
H           0.13656187024875   -1.57985555057322    1.75466650998022
H           0.21551271274917   -1.88910492106111    0.21998921075098
H           1.86631368968911   -0.90450585405622    1.00946820648918
N          -0.93470460272753   -0.78652342399185    2.83266920680736
H          -1.71814313025157   -0.42359290089435    2.30236177217761
H          -0.37545920797651    0.00850514033707    3.11911018072400
H          -1.29313730420969   -1.24140947209780    3.66241470874316
