    26
        -50.43839785  Gyration_radius:  2.49553459731 Dipole_moment: 4.120
 S          -0.99895447694968   -1.79062865998345   -0.38124825199799
O          -1.63008153573536   -2.04160612785382    0.92501518245886
O           0.42624297732491   -1.65783281280885   -0.28789475779221
O          -1.64541407202603   -0.66540777601103   -1.04538616118744
O          -1.30836175450251   -3.06209777975663   -1.25482345385456
H          -2.25834592400957   -3.04882469587585   -1.31384557289991
H          -1.41173624212264    0.66647449439366   -0.27159408526110
O          -1.28455389059034    1.43998753848755    0.35363369229657
H          -2.01469665086450    2.03958236210198    0.18731305986362
O           1.41997763780085    0.03044178196924    2.64514284439424
H           1.72098273982806    0.52689965773842    3.40854230928013
O           2.28643647072407   -0.10639679347915   -1.33704014692772
H           3.11629856638898   -0.57349645228929   -1.22815719758025
H           1.58797712620798   -0.72581101271249   -1.03426361170127
O           1.54065711873422    1.59749468574213    0.59051392996635
H           0.60532033474870    1.72664194473714    0.38256674162181
H           1.57880904988972    0.61343674637544    1.84013296358401
H           1.90654681976004    1.07936215338325   -0.16051343219567
O          -1.07128511633014   -0.14970276172745    2.37842028749831
H          -1.21036519234533    0.58545462479168    1.70174476320435
H          -1.32289429509591   -1.04592290912200    1.82137282505015
H          -0.03711558387797   -0.16787376673922    2.55572414717432
N          -0.06167534350629    1.25487599279745   -2.88697671628170
H          -0.70572127439701    0.56017663891611   -2.52324386500177
H          -0.09681363070121    2.05348756485843   -2.26397001964851
H           0.86876614165003    0.86128537207029   -2.80116547406618
