    26
        -50.43839767  Gyration_radius:  2.49528013255 Dipole_moment: 4.114
 S           1.52510809841786   -0.74562267356082    1.21060785095617
O           0.78309232677767   -1.03923508165549    2.44779932803517
O           1.40066850860335    0.62491251243855    0.80601913568520
O           1.16009031178048   -1.69516646384091    0.16647173136846
O           3.03840106297157   -1.01327705864957    1.54790825273553
H           3.04602079150501   -1.94347117442665    1.75002081009689
H          -0.32883409663271   -1.52832338612158   -0.26068194137560
O          -1.31578581538444   -1.40264325180583   -0.38531524341129
H          -1.65196066945675   -2.24047643539641   -0.70984248935552
O          -1.81855971873546    1.91803004399802    1.42387712885170
H          -2.69760769558254    2.28528224417128    1.53452521015259
O           1.06679719829500    1.94053897852676   -1.45795249533608
H           1.28248393625983    1.43350059176554   -0.64584211473025
H           1.34886793616290    2.84065942643694   -1.28781539627784
O          -1.57139196207495   -0.50848172150176    2.02454358469904
H          -1.65302987525388    0.52833411305828    1.88372262758171
H          -1.63441067392823   -0.90640560329487    1.09965402477877
H          -0.54708988166237   -0.71946859628542    2.31238651817905
O          -1.51692817064529    1.34329711419176   -1.08019485750948
H          -1.49071973740715    0.37699856933531   -1.06139585205335
H          -1.67480470848158    1.80539838955846    0.43400554058635
H          -0.61313283781143    1.62439916601232   -1.34578077875675
N           1.09752677513109   -0.87364886884483   -2.81864572811956
H           1.34766634759638    0.10593572160998   -2.74225022869441
H           1.32810379457832   -1.30271894414104   -1.92845732958684
H           0.08942872497711   -0.90834763158696   -2.91736728849755
