    26
        -50.43839779  Gyration_radius:  2.49529456805 Dipole_moment: 4.111
 S           1.58329731930661   -1.09010694743000   -0.80849627978977
O           1.34822982842024   -0.91452355101740    0.59574100143432
O           2.40293651096774   -0.01069642428806   -1.38341708167413
O           0.36172164510824   -1.26363542615777   -1.58484746768505
O           2.42215043178897   -2.40786432383707   -0.99608120697046
H           2.48757927658372   -2.48036633287199   -1.94294027747745
H          -0.56550561649341   -0.01625646123972   -1.47933446033034
O          -1.03241430074305    0.86938594020674   -1.42316228709444
H          -1.56790386696113    0.93869887790361   -2.21608832151302
O           0.88241240459805    2.46961905480613    1.46155942089252
H           0.70415588569143    3.37516134754924    1.72253538808939
O          -0.68248252875803   -1.21292326189895    2.25533150661024
H          -0.30203237468137   -1.27902108947996    3.13260947412476
H           0.07697742092344   -1.19974213362761    1.63384282375092
O          -1.37977610035254    1.21816481768785    1.37340482187980
H          -1.24844905199212    0.33113271253619    1.77641630919168
H           0.01258248235813    1.96934174255462    1.54126947291065
H          -1.48171228807202    1.05743451901650    0.42550748797049
O           1.20339664971218    2.09164187209295   -1.00082009743833
H           0.27783043498593    1.76263975650838   -1.23126446128321
H           1.18132646400342    2.27249332850485    0.03284668569253
H           1.82248296980611    1.21673950473691   -1.16614285954256
N          -2.29405396244315   -2.14186020685009   -0.25588755101852
H          -1.44753782107157   -2.10347681687948   -0.81407274334359
H          -2.00050402065234   -2.20158728354992    0.71282953914994
H          -2.76470781203500   -1.25039320497493   -0.36133884654005
