    26
        -50.46309530  Gyration_radius:  2.39390557954 Dipole_moment: 2.606
 S          -1.35782738098384    0.16331490991615    0.75856532120276
O          -0.91912301939723    1.19038445588809   -0.18414677665916
O          -0.17541558150830   -0.55143337728391    1.27657820184115
O          -2.30265304282255   -0.76023739179600    0.17167654483160
O          -2.03497056896039    0.85967592594779    1.96123278816956
H          -1.37292523185652    1.57234977373655    2.19313114226655
H          -1.84056875613653   -1.47547450962104   -1.16464777332763
O          -1.43971745375900   -1.90864038583178   -1.96789249979632
H          -2.15843763525911   -2.36625913693494   -2.40647479335437
O           2.07795123015795   -0.63546995751978   -1.31384212694801
H           1.60091397552332   -1.50090346471263   -0.94389667860904
O           0.66533861626475   -2.45602192814264   -0.32628043352783
H           0.29989368404630   -1.89023427830204    0.39609296319735
H          -0.06459691003442   -2.54922089035736   -0.96447502807162
O           2.11535902307238    0.55040371792038    0.96492652315587
H           1.19139967032254    0.20981463653680    1.14243401863360
H           2.68734815597509    0.08193980825908    1.57676962794258
H           2.21272674562003   -0.06159981048165   -0.48354917681825
O           0.06193008791238    0.31273255139754   -2.40751700178261
H          -0.49623435682710   -0.47867022318797   -2.53025978859196
H          -0.34104330154182    0.77701088066911   -1.62522659042360
H           1.28165038947117   -0.16447601636162   -1.87658630615860
N          -0.11424656492752    2.62701453915421    2.06003591749897
H          -0.24489725721396    3.61198874375281    2.25092931640103
H          -0.13590573987740    2.48296221044170    1.05260354405027
H           0.80405122271754    2.35904921703385    2.38981907460787
