    26
        -50.46309531  Gyration_radius:  2.3941341459 Dipole_moment: 2.608
 S          -0.54798996852765   -1.37771417620544    0.49148654949252
O           0.19475283536230   -1.16227536159702   -0.76510081303612
O          -1.23721763039493   -0.14157589633836    0.85599631058078
O           0.33213998854825   -1.85035238517824    1.53657663372326
O          -1.60952958588938   -2.46707223288540    0.21501514177281
H          -2.24702801743578   -1.99233937863544   -0.39180898244541
H           1.40865342653104   -0.81585542945932    2.06705828116764
O           1.24906962167377    2.10772473881536   -0.67129296833407
H           1.91454992656928    1.29129414094578   -0.61406422334034
O           2.07823618501468   -0.11344070803003    2.29452535727194
H           2.50829660951177   -0.40990924110425    3.09793864028839
O           2.53501316822221   -0.02651378245328   -0.39160477435711
H           1.76283894293659   -0.61156053086984   -0.58352020870187
H           2.66411719506403   -0.08980963742427    0.57167632528848
O          -0.43001124830526    0.88030311877047   -2.17857002297734
H          -0.04172772570220    0.70047450118145   -3.03756758454431
H          -0.28991756053568    0.04985838630611   -1.63831005405187
H           0.52032588769345    1.77994217476727   -1.30274668182150
O           0.28844545922728    1.80764243653114    1.59726991073785
H           0.98934918281998    1.30217869878341    2.05142052916125
H           0.80891677153640    2.10760965819184    0.31815595917523
H          -0.40644960962393    1.12738033829749    1.38699969526812
N          -3.03258309697828   -0.77486121646576   -1.17536495565481
H          -2.64937867308472   -0.12398173375558   -0.49297261616006
H          -4.04221983632153   -0.71639335242559   -1.14930650974084
H          -2.72065223711413   -0.48075314943773   -2.09188892904414
