    26
        -50.46309540  Gyration_radius:  2.3939655899 Dipole_moment: 2.609
 S           0.02771760309938   -0.95399504316007   -1.23784123249412
O           0.50341438797818   -1.42308994953300    0.06199162472813
O           0.16086158089589    0.51430865224749   -1.29794842454673
O          -1.33305293855565   -1.35961976904333   -1.50990789349804
O           0.94348941162245   -1.54192596130411   -2.33587998278934
H           1.85637844457664   -1.34490284676310   -1.97842507742923
H          -2.40816014449505   -0.97467030268993   -0.41139388417539
O          -0.42263127134116    1.63395734061198    1.89790531905812
H          -1.08009779575050    1.82763029773582    1.09535101593700
O          -3.01320247667110   -0.64256608630783    0.30767482369309
H          -3.85313291874802   -1.08262966431015    0.16911853422478
O          -1.84505382210613    1.77453682715881   -0.16151151290156
H          -2.50560104173881    1.07080173168188   -0.03010049449290
H          -1.16483507027605    1.37607469215063   -0.75655011426698
O          -0.96591898673630   -0.78064654048744    2.08878731230303
H          -1.84696502080386   -0.82656671724719    1.67113737440411
H          -0.34830248028533   -1.13754521325649    1.39555652147054
H          -0.62877646106246    0.59301271672516    2.10977271341547
O           1.68255292892479    1.64092550609068    0.42640747329306
H           1.83795368173338    2.51722215882468    0.06728056640419
H           0.49874282861981    1.65523028982945    1.46428481989133
H           1.17614752621369    1.14419840319695   -0.27956890388624
N           3.06400578098056   -0.96062139585512   -0.92618911508488
H           3.35891765982774    0.00239654695966   -0.82913339325303
H           3.87953250020003   -1.55310612127921   -0.84009506604995
H           2.42601610382944   -1.16840955209404   -0.16072299404385
