    26
        -50.46309538  Gyration_radius:  2.39406348174 Dipole_moment: 2.608
 S           0.06765666630081   -1.46768598180745   -0.53172594162889
O           1.23820687681963   -0.60717295910995   -0.27362435738599
O          -1.08388916839928   -0.62448824222852   -0.84640276698443
O          -0.18033463614525   -2.35004942337530    0.58638353759842
O           0.39715966075761   -2.32929055735857   -1.77232847309168
H           0.39481853349351   -1.65138569816936   -2.50748138340105
H          -0.67828211166209   -1.66122224859664    1.92361685037179
O          -0.00582650477517    2.22799111955194    1.22012495341381
H           0.60276715761979    1.53348496339575    1.73027029339714
O          -0.93554306680633   -1.13079643920505    2.72730104409848
H          -1.25237202239008   -1.76572537096455    3.37133948136145
O           1.30637638753719    0.32128828197160    2.18389965691188
H           1.43955273574924   -0.13172572949420    1.31644442264874
H           0.63139476793255   -0.21015514709118    2.64296056109990
O           1.11589597714441    1.82866034474429   -1.05572865834161
H           0.36413491287682    2.21987429873795    0.27121057149220
H           2.02746854855671    2.12819209672974   -1.03787380108487
H           1.14826965402331    0.84892093186241   -0.85490662340637
O          -2.01422114766339    0.77347965133341    1.11768320443978
H          -1.79098038287365    0.25191114293646    0.30047016536696
H          -1.85349835576669    0.14995409460688    1.85139452359628
H          -0.95310837214588    1.70534600862173    1.17557829939178
N           0.11473807533813   -0.25280595044414   -3.33134293868578
H          -0.32729587142152   -0.27366442198969   -4.24109406605869
H           0.81245186828490    0.47996511736199   -3.33353852787328
H          -0.58554016253447   -0.01289988225109   -2.63263002745133
