    26
        -50.46309548  Gyration_radius:  2.39400245819 Dipole_moment: 2.609
 S           1.11814168155291    0.88034017830137    0.64609155037012
O           1.40850123869380    0.07985434509134   -0.54174826674856
O          -0.00326776481325    0.26320934836824    1.38021876464969
O           0.82854889962251    2.26046462668197    0.32732215355715
O           2.35182362554924    0.84059781752000    1.57687313834738
H           2.56173257819304   -0.13659830815014    1.60829789552059
H          -0.32049050190265    2.50481505516489   -0.73590433915839
O          -1.08767652308177    2.55495385531302   -1.37024413342463
H          -1.11749846286080    3.46266623517338   -1.67593581218709
O          -2.04835663945124   -1.10178899730255   -1.02063503843058
H          -2.33411319865207   -0.27645403706315   -0.42853156263438
O          -2.35423607663642    0.93084485199890    0.41470592568323
H          -1.52644155271325    0.78794650140263    0.93413758055417
H          -2.14769164786786    1.66766786614264   -0.18788608748663
O          -0.60027782769161   -2.16275346032972    0.81667891036499
H          -1.14652961261709   -2.44805453406655    1.55234435937449
H          -1.48432133871416   -1.66718163268508   -0.38860553864972
H          -0.26745669757403   -1.25194070511479    1.06330654790418
O          -0.39265568179416    0.13633003190441   -2.39396099651558
H           0.39461380616882    0.07311018757794   -1.78914426401414
H          -1.35347121518634   -0.64849928123543   -1.71610009481969
H          -0.69548883506714    1.05933107083544   -2.29757899757653
N           2.58848367978031   -1.73444981762558    1.20898618523869
H           2.23594861937461   -1.48261383991551    0.28792082147119
H           1.92386406058316   -2.37026357060747    1.63068876810245
H           3.46831538710467   -2.22153380730473    1.09870253047265
