    26
        -50.46309530  Gyration_radius:  2.39388102693 Dipole_moment: 2.604
 S           0.15340236347707    1.42015150778899   -0.63688133258207
O          -0.70924164628451    0.34324475506148   -1.15978146537887
O           1.26698467645467    0.82440064631246    0.09876817377982
O          -0.60970240531232    2.34749478542018    0.16788854924634
O           0.72334583390909    2.18214584644685   -1.85525660669309
H           1.34766956330360    1.50934756621564   -2.25217322883353
H          -1.16370315841476    1.78548512940191    1.54216632807339
O          -0.59519862816633   -2.16795033108937    1.18102672985614
H          -1.46693210572472   -1.60517285443992    0.98942291299250
O          -1.50860542154498    1.32572490962683    2.35644728814769
H          -1.84748734979330    2.01793570903775    2.92595846296525
O          -2.42862664243083   -0.55531864632479    0.61213909700362
H          -2.38002758866233    0.10573510514502    1.32586038927490
H          -1.94364128815587   -0.14713736510776   -0.14525323121121
O           0.63807906897278   -0.33913783909182    2.31839152221219
H           0.00532097967870   -1.46505735620023    1.74509447416798
H           1.01724376118959    0.11860063283646    1.52053018678324
H          -0.08650812867414    0.24681669642524    2.60924849439570
O           0.25794251332294   -2.02682622311901   -1.23797978779529
H          -0.15295060116328   -2.24485838506760    0.26692215251415
H          -0.33010698118891   -2.50219470560337   -1.82890762420926
H          -0.03696966787427   -1.07122326729664   -1.27253871294367
N           2.31796348123331    0.18579847216372   -2.39806526200456
H           1.94177715142812   -0.67481735591104   -2.77440048771986
H           2.31591177917887    0.10709857579449   -1.38318266417787
H           3.27406044116295    0.27971400161033   -2.71544435792942
