    26
        -50.46309547  Gyration_radius:  2.39404364153 Dipole_moment: 2.606
 S           1.54919242573299   -0.16868270924742   -0.11406056637515
O           0.70388481583610    0.55672465431325   -1.08175934968783
O           0.74528263478360   -1.19594083494879    0.54509748174151
O           2.15871918301253    0.74572732847535    0.82535379138306
O           2.67092808344665   -0.86547718597111   -0.91796835292749
H           2.16801110470091   -1.57339124507114   -1.41365559048406
H           1.17826413881480    1.45616551684663    1.84746342243411
O           0.47698038203313    1.88833372785594    2.40856934017972
H           0.94441182530203    2.33936813456485    3.11313424966483
O          -2.43611465491031    0.64640976260077    0.31342500505320
H          -1.84184864441384    1.50926944932478    0.18701662556230
O          -0.72726267262726    2.45882348771118    0.03129493627568
H          -0.09299802206610    1.89409635336873   -0.47294648018788
H          -0.33634684092227    2.54282485794651    0.91954462971026
O          -1.08057053188539   -0.32354330545212    2.15270460472417
H          -0.38654202637197   -0.78666499367665    1.61109471685096
H          -0.62328867451609    0.46262872410903    2.50717797244788
H          -1.95748888549449    0.16664526744199    1.15725378233835
O          -1.50973221840242   -0.52998735838810   -1.77352660175090
H          -0.59566072036071   -0.19513522840435   -1.54201303428888
H          -2.20863584753600    0.07685696471410   -0.49971021857329
H          -1.76699678329901   -0.05667703152146   -2.56769170442035
N           0.96777404709267   -2.62007758780216   -1.83632730827494
H           0.55555221146888   -2.47564921802062   -0.91688775492287
H           1.16254583532056   -3.60579654106913   -1.95430128823549
H           0.28193982290662   -2.34685100963627   -2.52828232430975
