    26
        -50.44962124  Gyration_radius:  2.52258291139 Dipole_moment: 3.552
 S          -0.24500736598537   -1.09787841182088   -0.74924579726357
O          -1.68650593767242   -1.20629269344134   -0.63617672054785
O           0.40952376935441   -0.98660618336029    0.54435653499924
O           0.14747479015400    0.02113672802197   -1.61548090217363
O           0.31241595886887   -2.40262507408668   -1.40735464219865
H          -0.17106171959252   -2.43557213874776   -2.26640127824365
H           0.28456092915580    1.29274754084810   -0.82949065445778
O           0.35372610158014    2.16104687699873   -0.30340396460020
H           0.79335463410353    2.78041659140072   -0.88919066377537
O          -0.42024417309291    0.71241294413142    3.11853573977612
H          -0.87081505351984    1.32388505219347    3.70506139482873
O           2.79489622427804   -0.47287517788797    1.18672625767798
H           1.92190466737417   -0.79133816289928    0.80374090010963
H           2.99483582113121   -1.07842166874318    1.90383089537020
O           1.56520595509530    1.61088878251164    1.86822915060842
H           2.16681589377759    0.78770409437120    1.63179272280305
H           1.11045505752414    1.86816322008377    0.98090901725083
H           0.78144092531606    1.22653693556007    2.45044298737957
O          -1.91935848669719    0.85794376910875    0.99727241602778
H          -1.02340080541179    0.59349430000539    2.32774123041086
H          -1.44002407227681    1.50076847037642    0.46286323824178
H          -1.94828205899015    0.03811542219256    0.45766800914586
N          -1.30203704829385   -1.77566883011539   -3.38147717112074
H          -0.83492086994439   -0.88383895992854   -3.50107809264523
H          -1.97098340472950   -1.64563568414702   -2.62754839365456
H          -1.80396972151291   -1.99850775263041   -4.23232218394524
