    26
        -50.47250313  Gyration_radius:  2.48730992473 Dipole_moment: 2.883
 S           1.44957044365068   -0.08073332221875   -1.74267770030423
O           0.25120474328268   -0.38214531511474   -2.51625683477288
O           1.45436481148219   -0.76168732158605   -0.46206609112624
O           1.68555529924310    1.34655517934794   -1.63939822887536
O           2.67127605838504   -0.67136747547612   -2.56002267461410
H           2.69212913161454   -0.08392821571766   -3.30754666842072
H           0.65959327506948    2.07181628562442   -0.65967992026255
O          -0.70440820888456   -0.44320330781448    2.62624198719149
H          -0.70901379238448   -0.46508969078580    3.58331614017619
O           0.05313486556343    2.49649328402155    0.00225218974029
H          -0.00206422080758    3.42050651016093   -0.24567918226827
O          -0.24650589411939   -2.44484384016037    0.78768141429732
H           0.54619283861847   -2.04228857400030    0.38715425486911
H          -0.43188325371498   -1.89968929973422    1.57415667198731
O           1.41069261861979    0.77794612094019    1.72092864008796
H           1.60523673134142    0.20124069963053    0.95494457496408
H           1.05476212857836    1.58848989951499    1.32808331756986
H           0.14170687537630    0.01984200170154    2.35757010724538
O          -2.07638077479830    0.91583431517685    0.66241947463812
H          -1.38616657666686    1.55890259410163    0.41234430242398
H          -1.97703339202544   -0.28006447809853   -0.38957390486126
H          -1.74490642750535    0.48508039313547    1.47095511558251
N          -1.70282475334863   -1.13201859735635   -0.96203398826220
H          -0.95712871403038   -0.83923108932813   -1.65793335030417
H          -2.50034904243185   -1.54172211521900   -1.43419410069443
H          -1.23675476010691   -1.81469462074500   -0.29098553600811
