    26
        -50.46309545  Gyration_radius:  2.39401926964 Dipole_moment: 2.607
 S           0.04405873370729   -1.55552148998212    0.14199115571169
O           1.18478069326237   -0.71013294317367   -0.25988375490151
O          -1.20029653379608   -0.88767214381015   -0.23424299460036
O           0.10292186196431   -1.86424375616532    1.55321604754104
O           0.15072278964864   -2.87690858157448   -0.65338827040026
H          -0.05403850821630   -2.57979313352891   -1.58588690107195
H          -0.13577975714067   -0.65192526275542    2.54509321370119
O           0.11597565593596    2.53398480410708    0.12472057370827
H           0.86436723386074    2.10321100714925    0.73102863964611
O          -0.24551914402165    0.18054861417549    3.08216171452813
H          -0.37364980436796   -0.10525927240694    3.98781650552584
O           1.72614575635772    1.17771418841494    1.48611669711419
H           1.20285026777338    0.91882549876902    2.26578624983726
H           1.69616891703015    0.39236140249481    0.88794393935733
O           0.74026738025944    1.15931832079579   -1.95320905042675
H           0.87783582836930    0.35931140978391   -1.36814216820056
H           0.27051711461914    2.10722659872953   -0.78709326621328
H           1.61305800947785    1.40518548376110   -2.26747005474869
O          -1.76907398073413    1.24937758591824    1.10292329748408
H          -1.69602321386584    0.42046070386382    0.55778438782997
H          -1.41263730245491    0.99469824213641    1.97530454435063
H          -0.78258530153667    2.07748651676717    0.51971872977670
N          -0.59506648264977   -1.65838257071199   -2.84016317520745
H          -1.21930775293251   -2.04951435252852   -3.53366325317980
H           0.03758633156229   -1.02052233283751   -3.30577344343402
H          -1.14327878233254   -1.11983452734842   -2.17268938370143
