    26
        -50.46309541  Gyration_radius:  2.39386506502 Dipole_moment: 2.609
 S           1.23553719117501    0.56308846431897    0.77557734450147
O           0.17333757750887   -0.27361118733916    1.36640939872839
O           0.68621102042223    1.29878140004600   -0.36151582527669
O           2.38296200137571   -0.23907335914217    0.41469787492651
O           1.66912451687622    1.58178840483087    1.85460169603953
H           0.86718945592776    2.17559756946311    1.91891374073237
H           2.17600034368999   -1.25234832732055   -0.78588335898987
O           1.93129159773792   -1.89044436573334   -1.51141930368746
H           2.75686703662884   -2.26406173501951   -1.82305222686597
O          -1.80586938780249   -1.26206631336008   -1.26261007839822
H          -1.20307292832890   -1.93464106822334   -0.71649050861062
O          -0.15520514782475   -2.55721329230192    0.10908001264710
H           0.03571704729465   -1.81270266399637    0.72936437484602
H           0.62813903259353   -2.60960085294616   -0.46757548419547
O           0.07313111200973   -0.13090680286487   -2.42520884571679
H           0.31573249478747    0.53396519262500   -1.72621229377559
H           0.78020462964221   -0.80188610472379   -2.37345578146788
H          -1.07251611531038   -0.74562108771219   -1.86801859601433
O          -2.25201380803828    0.27095030256909    0.74971396544787
H          -2.11386179785801   -0.59122290273764   -0.56102859493372
H          -2.77279529406860   -0.18802615945389    1.41238746798000
H          -1.29780828467412    0.16017269789883    1.02975172561762
N          -0.55468396435142    2.91448266798370    1.53511196334433
H          -1.42831522690719    2.52924400868962    1.87011249747361
H          -0.42598461055853    2.60191509520730    0.57497504990124
H          -0.62931850177450    3.92344041929875    1.54177376596105
