    26
        -50.46862854  Gyration_radius:  2.47519509111 Dipole_moment: 4.016
 S          -0.35917121433714   -0.21843231769921   -2.20678964917539
O          -1.29498403720627   -0.68201450858751   -1.16820323344210
O           0.99422140843894   -0.57527283885545   -1.87959428911017
O          -0.56969910451546    1.17790476583483   -2.52842574258126
O          -0.75683143917933   -1.02005464756861   -3.51889806550002
H          -1.41983886053187   -0.44677857934751   -3.88906377010604
H           0.08683528256059    1.92959329496513   -1.26664458628663
O           0.40151182928330    2.36952806215006   -0.43882300034763
H           0.84666691594773    3.17180100000938   -0.71730133178379
O          -0.75632114968256   -0.04919672724753    2.62105944921864
H          -1.25756226567810    0.06440432776660    3.42868158546656
O           2.33459926554225   -1.39591438115218    0.27195565055939
H           0.94391115510297   -1.85112256758824    0.62463955564771
H           2.11572903878711   -1.13908727416787   -0.64336029888958
O           1.70278065027681    0.87973193706727    1.50638653141326
H           0.95980630090511    0.63142883706285    2.07289387621988
H           2.34422751420115   -0.54461289003135    0.76894585432655
H           1.32261211413023    1.42559820280593    0.79690937621763
O          -1.85928885097534    1.21862726195214    0.64057140539104
H          -1.82225160033502    0.54985699427298   -0.07186780318770
H          -1.23384623658476    0.47736385117554    1.91307715367487
H          -1.20401062540345    1.88383133575055    0.37958707706966
N          -0.12746228046343   -1.96984832163157    0.79965218913374
H          -0.38602957123482   -1.41150761966995    1.63544206590396
H          -0.39153849597006   -2.94248186052075    0.90414841732795
H          -0.61406574308376   -1.53334533674944   -0.03497840716221
