    26
        -50.46309530  Gyration_radius:  2.39383929708 Dipole_moment: 2.605
 S           0.06424832300767   -1.56256904104733    0.03282528670949
O           1.23019927076708   -0.66713304506191   -0.09427779973425
O          -1.11508284909591   -0.88976509869964   -0.50803913162671
O          -0.11702481499972   -1.98135420314038    1.40468910045254
O           0.35234453758246   -2.81366799466591   -0.82821813474907
H           0.30540483509487   -2.44647985001550   -1.75714348534048
H          -0.56106968782094   -0.85251878437937    2.42452953646155
O           0.01544171588093    2.51775576484637    0.32836536615053
H           0.65806230984427    2.05449691970659    1.02544937891181
O          -0.78821511404762   -0.06604633393983    2.99316816425281
H          -1.06392576767711   -0.42325357788434    3.83858282690033
O           1.40078372220224    1.08864165447499    1.85262347369067
H           0.75637684663695    0.76116403369011    2.50558422903171
H           1.49992382098865    0.35161278566454    1.20261036665191
O           1.03881070621360    1.31849712480567   -1.70006767491127
H           1.09397611000833    0.47835212265921   -1.15917006031080
H           0.34142136172692    2.16585451336022   -0.56987624467400
H           1.94591098983355    1.60178109010356   -1.83382782010941
O          -1.97181569788063    1.12870120424931    0.85910855771390
H          -1.76684476930570    0.81318857959876    1.75985674150915
H          -0.92412043796140    2.01611901890182    0.52265559878335
H          -1.77967878536898    0.34563919148263    0.27635182164657
N          -0.03613116856581   -1.43796358146177   -3.01433578954650
H          -0.51218357855174   -1.78274231428921   -3.83780385489979
H           0.64639213532369   -0.75046934896159   -3.30657757786996
H          -0.71320403345486   -0.96784085990525   -2.41706285508322
