    26
        -50.46309513  Gyration_radius:  2.39377330341 Dipole_moment: 2.606
 S           0.90440123387934    1.27557013034278   -0.05750651997070
O          -0.15576835672266    1.02956921990921    0.93883077728521
O           0.58197100086050    0.55180975251472   -1.28555749870923
O           2.20181871879969    0.91927648458187    0.47152032434061
O           0.89961140605047    2.79044193938267   -0.36625419045185
H           0.03740010990036    2.90277158150654   -0.85995779047016
H           2.45109861106189   -0.62571858598861    0.72091803127483
O          -1.22850257233960   -2.18742812180565    0.39203646953431
H          -0.70795999189057   -1.89950296271663    1.26356292674880
O           2.49137882595315   -1.60719572795380    0.88990190196196
H           3.41206499289134   -1.80650995713436    1.06575495099099
O           0.15857002501430   -1.22737160452350    2.24675692886080
H           1.06578962361253   -1.49524036175024    2.01457484339475
H           0.08072692827322   -0.29503342990748    1.93029074231019
O           0.72431152964530   -2.02366236672528   -1.13104621427831
H           1.47447084037172   -2.10723946620866   -0.51191579136291
H          -0.43566470309314   -2.20974552035362   -0.34501343508303
H           0.68533909782052   -1.05124200496961   -1.33742438978820
O          -2.38501526376422    0.08793283762902    0.10117158551008
H          -1.53120849540898    0.54057993761458    0.36115187258680
H          -1.79538868549388   -1.37107656004639    0.17020092761601
H          -2.99515427359183    0.24857860411600    0.82429564727169
N          -1.31830926030247    2.53803958098022   -1.72319596067446
H          -0.89904062094116    1.63827733556511   -1.94817793648027
H          -1.52784016306863    3.02444625238470   -2.58529968257314
H          -2.18910054764496    2.35967298311073   -1.23961849973147
