    26
        -50.45488104  Gyration_radius:  2.47424034242 Dipole_moment: 0.414
 S           0.32872678335430   -1.30542739086113   -0.33869113265213
O          -0.88716888549900   -0.83268936982465   -0.96826025108037
O           1.02555710917706   -0.27225731882881    0.38812687130229
O           0.01918087845717   -2.47103496831392    0.58094082837957
O           1.24357971612649   -1.92981619209739   -1.38308910185654
O          -2.35654799848986    0.34629019045769    0.89297584608346
H          -1.84484318932386   -0.00838786123308    0.13560782938558
H          -3.28218132184288    0.22030543083827    0.67474841658369
O           1.08551852845116   -0.14505392338565    3.05945875137772
H           1.16975888736517   -0.06967938580387    2.08861920777210
H           1.85217599473638   -0.63592287290476    3.36007213483978
O          -0.26269208717581    1.27027387384064   -2.57180633385158
H          -0.71223624170449    0.50855997053264   -2.17240872736278
H          -0.16908113324770    1.90086876983879   -1.81694122181424
O          -1.16915644843969   -1.43696335713138    2.50139965448187
H          -0.51892257742077   -2.10986213923030    1.43132892717010
H          -0.42171719368409   -0.95828124096567    2.92976613958901
H          -1.70706435757125   -0.74036176687050    2.06071232065364
O           1.94713718174843   -0.01959040034277   -2.85519191045794
H           1.13919458344556    0.58582350183138   -2.79049878197993
H           1.60070230927503   -1.16674790867837   -1.98454220256983
H           1.99861766258717   -0.30225436138962   -3.77153292563191
N          -0.05185260841509    2.40559427993438   -0.13987910944428
H           0.42166004072109    3.23281642834641    0.20060856279516
H           0.49251871303117    1.59510915650212    0.14600747945874
H          -0.94086436564052    2.33868882574263    0.34246872882359
