    26
        -50.46570242  Gyration_radius:  2.4302087226 Dipole_moment: 4.249
 S          -1.02240659207361   -1.44457032610711   -0.85963089692317
O          -0.07617545252104   -0.94538700212655   -1.85443068271391
O          -1.96783685703429   -0.41310847932388   -0.45649508556549
O          -0.37755668089909   -2.11135156567029    0.24649495378514
O          -1.89780812339014   -2.54111467798994   -1.59816052744799
H          -1.31066020275231   -3.28690125069614   -1.67463901609675
H           1.62027736237021   -0.32836495980043   -1.48375128546756
O           2.33554251430207    0.14878565394394   -1.03575971027550
H           2.44780966868125   -0.33195728318274   -0.18647117583580
O           0.41549973509821    1.13583222474656    2.24164744688259
H           0.46232536037641    1.54761675837437    3.10530163784347
O           1.91619230677693   -1.06581068427653    1.30699363755009
H           1.53524584612275   -0.30550859276307    1.77148328328213
H           1.15922743604511   -1.57204222431177    0.96578024048162
O           1.10134652512876    2.28323439414455   -0.14896882896330
H           1.73215844905792    1.59021292420912   -0.49060998978121
H          -0.03120440935285    1.98446324077352   -1.03709459027020
H           0.87285316514990    1.98751433331901    0.75186754739040
O          -1.59337122323879   -0.56563822623598    2.16284729456446
H          -1.93948747485397   -0.42824280516386    1.26100106723508
H          -1.13613013961045   -1.41230003549666    2.09389783743359
H          -0.38984855755306    0.55442972286344    2.24926812670058
N          -0.79689610544312    1.54132922632059   -1.69945789815104
H          -1.13394341699211    2.18189256671116   -2.40918172885800
H          -1.55626194823976    1.12604336926140   -1.12576381803918
H          -0.36889119520344    0.67094367850156   -2.09616786874554
