    26
        -50.46862853  Gyration_radius:  2.4750536644 Dipole_moment: 4.021
 S           0.50328109538434   -0.62231926718347   -2.09923163410736
O          -0.58000256410829   -1.21722641723784   -1.29800671503744
O           1.70031919674563   -0.46984443172716   -1.31828295738090
O           0.06033649915495    0.57024347084044   -2.79129442641867
O           0.81345178628015   -1.68356149399987   -3.23941416141999
H           0.19307811996959   -1.41766090115693   -3.90996841041327
H           0.01655188621578    1.65868448676127   -1.60712390987605
O          -0.10202347669632    2.28556141143104   -0.85171171387794
H           0.19058544254071    3.14169835144780   -1.16907508497228
O          -1.58220948484775    0.06913341037501    2.22252200946644
H          -2.34384198165646    0.12768044443730    2.79950238230456
O           2.37009734723652   -0.51221512589398    1.25999060906466
H           1.11423238235179   -1.34051005622297    1.29119590759008
H           2.42475052857921   -0.46747552288676    0.28696275980459
O           0.77804300649327    1.58227529994201    1.68360493287872
H           1.98402560231658    0.35579066335269    1.52319517709326
H           0.54115855209613    1.87144779857406    0.78574818758125
H          -0.02356049709443    1.18654179983121    2.05162679597638
O          -2.21543609298557    0.62568233945531   -0.23439907554076
H          -1.75898048380995   -0.08583600140212   -0.72594216257996
H          -1.90262943048901    0.30954473384714    1.30274713742265
H          -1.70832428679339    1.42505078893380   -0.44356758260168
N           0.11951926383236   -1.77514443387003    1.17037073461253
H          -0.55016490065817   -1.22232020910253    1.73850125105059
H           0.09913279313142   -2.75692603803970    1.42009922816192
H          -0.14139030320252   -1.63829512049348    0.15195072122354
