    26
        -50.46570318  Gyration_radius:  2.43012151925 Dipole_moment: 4.261
 S          -1.65270990372749   -0.72101692473599   -0.78585725299649
O          -1.63886920659090   -1.08452468020149    0.62389936889904
O          -0.53899116897028   -1.33063512204274   -1.50873410362228
O          -1.76764671040712    0.69826615910750   -1.02284101849971
O          -2.96915545092748   -1.38443896786981   -1.37004789570310
H          -3.05708470665799   -0.99220514347445   -2.23329607825678
H           1.05862438022263   -0.49451139576352   -1.88873815953502
O           0.87365650093997    1.74666050158525    1.63537040871702
H           1.11259092493055    2.37873657293172    2.31429227692151
O           1.85638592085062    0.04144186023885   -1.76096133619063
H           1.51864638834212    0.96222595392735   -1.70448493884051
O           0.48650208155174    2.24327423779399   -1.11768561392218
H           0.70419419333984    2.25118047198993   -0.17355180678602
H          -0.37121340323041    1.79017819041281   -1.18640056223437
O           2.39092904269438   -0.36381258777711    0.77175889214644
H           2.38528609318563   -0.18230148460603   -0.20911052863436
H           1.93590394264214    0.40246142841764    1.16802934936259
H           1.46520025892250   -1.50527756869947    0.77334858278362
O          -1.73193825838104    1.36141491618338    1.64127230541416
H          -1.79466377283295    0.40284151752138    1.47038839760543
H          -0.10417997279690    1.59528166581857    1.72230439107948
H          -1.99373703204675    1.75029445493202    0.79812842050971
N           0.67640826683942   -2.25681192289610    0.58724223380651
H           0.95398218088918   -3.20029162238639    0.83303688147507
H           0.40848041314825   -2.15284146721640   -0.42042636525387
H          -0.20660099086598   -1.95558905361762    1.04306415133439
