    26
        -50.46570238  Gyration_radius:  2.43017364149 Dipole_moment: 4.254
 S          -1.90250613134535   -0.04716085993906    0.49872528077979
O          -1.28814661536371   -1.24712577982517    1.06146838858169
O          -1.82638368682896   -0.03926261281943   -0.95548221986225
O          -1.43030456244661    1.16961895433058    1.11565893082252
O          -3.44971604785928   -0.14924259973390    0.83040736331791
H          -3.49615775993417    0.04738293253955    1.76097304062832
H           0.43218033462822   -1.34564397883837    1.71249451994072
O           1.78553193481466    1.47896144089632   -1.05611752900761
H           2.37597903582474    2.07026573009106   -1.52438147467427
O           1.39214391085162   -1.22045428707289    1.76588130823709
H           1.49776342831687   -0.26238024809879    1.95545520092407
O           1.22469804324699    1.44573985835393    1.71139861047007
H           1.56887925097887    1.57106462573006    0.81433336811531
H           0.25643729940047    1.43236155232082    1.62233044603626
O           2.08878726252233   -1.22731592391601   -0.75985593885344
H           0.77421366944202   -1.78421002495455   -1.10969656728098
H           2.07702130587642   -0.26963185328226   -0.94385772093779
H           2.00857852012701   -1.29559822690776    0.23207238832589
O          -0.69572145139832    2.33902381174880   -1.25688758926500
H          -1.19115500610210    1.50497485995542   -1.36129701033453
H          -0.89213083347106    2.59651749238525   -0.34815106224872
H           0.86458309060452    1.81558760580628   -1.21501014790813
N          -0.27960926736764   -2.11230612270730   -1.16635690013518
H          -0.86409097123831   -1.34322593741403   -1.54793047271718
H          -0.62947374669528   -2.13695861250626   -0.17918558037155
H          -0.40140101651348   -2.99098180604940   -1.65698864253046
