    26
        -50.47250318  Gyration_radius:  2.48727802127 Dipole_moment: 2.881
 S           0.92332817301129    1.82048680937491    0.98837178732799
O           0.30957907713525    0.63337965040629    1.55198617432573
O           0.00279608655440    2.55471356327115    0.12882468230366
O           2.19018922834382    1.56011503715407    0.33193442686625
O           1.24867868149953    2.77154672681062    2.21276260158829
H           1.77149772847490    3.44328336472171    1.78869827256803
H           2.08060760348597    0.44302606902861   -0.79896973621995
O          -0.93801473258481   -2.59027489921609    0.02106807111941
H          -1.01591342757705   -3.53639051179288    0.14464040709664
O           2.00770955328138   -0.29883057443057   -1.45517205561941
H           2.71971358509825   -0.16653809977568   -2.08276451325254
O          -2.13280446397505   -0.50121820814016    1.36421405671252
H          -1.86156622899948   -1.35685093921095    0.98413321563680
H          -1.30784836249195   -0.10688282637375    1.70296078051475
O          -0.57888035407388   -0.88704687466237   -2.11341948849243
H          -0.76681412324407   -1.61721980339575   -1.49642309648645
H          -1.40073534718756    0.30553775991936   -1.44292502915901
H           0.36508248489540   -0.67657589014397   -1.98276500516919
O           1.37026519643217   -1.71733094846953    0.85427726408160
H           1.07841418796088   -0.87755978347479    1.26265748631984
H          -0.04039000310341   -2.33063460395310    0.38083443567686
H           1.81893268364006   -1.44618122900762    0.03995477092284
N          -1.87322675346041    0.99123022726550   -0.78323538408730
H          -2.65420919754615    1.46215028090372   -1.22499893197078
H          -1.14580440466969    1.68893428314229   -0.45128214070149
H          -2.17058689089914    0.43513144004834    0.07463696809766
