    26
        -50.46862831  Gyration_radius:  2.47533787693 Dipole_moment: 4.006
 S          -0.98244831189339   -0.05769151898575   -2.01983728541364
O          -1.45997043145511   -0.80898309793979   -0.84652012348939
O           0.44519406099697   -0.16007323789188   -2.15295628638480
O          -1.50962967444248    1.29118959149787   -2.03967292324817
O          -1.62959052352529   -0.78310652022981   -3.27576809342202
H          -2.45520292728739   -0.31628032103214   -3.35004627388140
H          -0.62906146668003    2.02641923914475   -0.91160922916290
O          -0.15062677172370    2.43328861856040   -0.14783271210378
H           0.05084074017901    3.33325381671420   -0.41009178666658
O           0.10956023104312   -0.47503301517513    2.68520638419112
H          -0.12909912180958   -0.55092014399398    3.60914921753313
O           2.49994236242603   -0.90651083533472   -0.63016715584286
H           1.38309415797399   -1.67240215017245    0.02611810774445
H           1.96877260083173   -0.60665048479067   -1.39160975644138
O           1.91497622968816    1.04984312563385    1.08225845868385
H           2.52271303368647   -0.12770586574051   -0.02628344169488
H           1.24910856300739    1.57620940313158    0.60739429602457
H           1.43570363345058    0.59695892391187    1.78917346096128
O          -1.74545618830623    0.73603151457014    1.32905382219790
H          -1.81959545704099    0.16697181690952    0.53726123727445
H          -0.64357272334629    0.01204050620878    2.23567770448969
H          -1.32295224869222    1.54573463894467    1.00389865325414
N           0.45339534496837   -2.02644354568050    0.47683535787940
H           0.37730098361897   -1.62257723935257    1.42985275846946
H           0.39888071992591   -3.03807297547780    0.49473498762134
H          -0.33227685559208   -1.61549025343705   -0.10421934858049
