    26
        -50.45234082  Gyration_radius:  2.45879966263 Dipole_moment: 5.678
 S          -1.09518288381947    1.04555849260733    1.57115637329019
O          -1.54823469558201    1.16669891639926    0.08880956677282
O          -1.78941937238210   -0.21639339293807    2.07288445988185
O           0.34239234628432    0.82235183498482    1.55380544205295
O          -1.52627943622389    2.18176603371676    2.29754707050623
O           1.49524511981375   -1.65563987400180   -0.51655095856543
H           1.99078100554722   -2.42243478081091   -0.80644674443364
O           1.83226969586622    2.31112067144079   -0.03837594930904
H           1.29554724460765    1.85761310417669    0.64828580286735
H           1.64009564535026    3.24601362025568    0.04375824507662
O           2.79923452278099   -0.24617253354933    1.27973198705588
H           2.04534893629631   -1.20077644722890    0.17483757919284
H           3.14208946174585    0.53823164696954    0.83909535193930
H           1.96890064098519    0.04256661807270    1.69334395892438
O           0.34940734472112    0.60078034790107   -1.53836799425155
H           0.74015709857105   -0.25435442852582   -1.27872274691657
H          -0.81026881183005    0.91067998322304   -0.56157696890465
H           0.99108342087493    1.27589206700650   -1.24405178492012
O          -1.07300462414597   -1.96899046017093    0.41653840074905
H          -0.12959414688045   -1.90077456568667    0.18312537722382
H          -1.49461762816172   -0.98564192695579    1.45486605404907
H          -1.57147042841530   -1.72061372147282   -0.40468018495799
N          -2.29499055783881   -1.01983310381925   -1.79184471769228
H          -2.92149817593968   -1.54246575443457   -2.39034164754137
H          -1.56649464724682   -0.61353082814909   -2.36719835382769
H          -2.81149708498695   -0.25165148899985   -1.37962760825619
