    26
        -50.45837974  Gyration_radius:  2.56835026578 Dipole_moment: 4.265
 S          -1.42598197291001    0.26027786789372   -1.82123243840380
O          -0.32276730993518   -0.63696618629091   -2.14605708952026
O          -1.05810290840928    1.65767510810363   -1.99545858212426
O          -2.01866658858707   -0.00827766963518   -0.52831554083043
O          -2.54201524962572   -0.04761730770763   -2.90922840690281
H          -3.24784169722073    0.56271861965640   -2.71350164185055
H          -1.26264361485236    0.98587141221067    0.68890340919848
O          -0.72066951036717    1.39584711265935    1.38696744952732
H          -0.80115470106346    0.80729647622640    2.16115177069301
O           1.36884249705509   -1.64076405218874    1.49170669906278
H           1.86709208708327   -2.44201291700292    1.65605675821798
O          -0.25890438116422   -0.43961307969245    3.37762544168106
H           0.30396865889344   -0.02576605451788    4.03378430994914
H           0.32843784581316   -0.93910741762224    2.78122766901617
O          -0.61120674846460   -2.27477658986714   -0.08609673030428
H           0.61817049118589   -1.90426004893265    0.88597029181624
H          -1.36628097319345   -1.73860101120418    0.19456377548060
H          -0.40158452431969   -1.89342074327332   -0.95952630890909
O           1.79640674477983    0.99195077217137    0.82999715160289
H           0.87612120380542    1.28108470371810    1.09114930989658
H           1.82093372559395    0.04669294184133    1.06001033477962
H           1.70546830969718    1.15827418872821   -0.64857175234606
N           1.45700987369767    1.21703726966923   -1.71240551640651
H           1.16590371855477    0.27475869806622   -2.03646032769405
H           2.19525999792727    1.62539530667199   -2.27461919635858
H           0.53420502600465    1.72630261067428   -1.80764085945306
