    26
        -50.46570318  Gyration_radius:  2.43001080713 Dipole_moment: 4.268
 S           0.07286410870669   -1.95793089638848    0.16899071687406
O           1.12934504824671   -1.57474111107201   -0.76450705284587
O          -1.24511802578465   -1.60687451799870   -0.34061141099687
O           0.31968367784074   -1.50165319174009    1.51610643020604
O           0.08671986935028   -3.54272059292315    0.21905415932724
H           0.87249316937540   -3.74816202130435    0.71613852380319
H           2.11989152324650   -0.02567183642746   -0.65688107285890
O          -1.10112182078575    2.08038086825174    0.97444377046873
H          -1.60838006223490    2.80075619069769    1.35037242025363
O           2.32774868174946    0.91400629174004   -0.53910272387599
H           2.19427692294253    1.06956965587976    0.42161882516318
O           1.32656903015076    1.00626796619974    1.93647894742444
H           0.53424630916522    1.52377423283375    1.72821593661342
H           1.04708521259199    0.07521049547333    1.91091685542627
O          -2.10013371380429   -0.22800303727872    1.75559255278229
H          -1.39702250556541   -0.56904899690202    2.32133668627709
H          -1.55512543216090    1.24120174514793    1.25085503723097
H          -2.01415507598034   -0.76856226771523    0.94792037490658
O           0.16418529709388    2.07327540441341   -1.45529558126424
H          -0.33591152850708    2.18424321138733   -0.62541877421414
H           1.07881711651822    1.80033650408876   -1.16538272761779
H          -0.24083467941278    0.80366372052476   -2.07569442944978
N          -0.40140367742841   -0.24575068283425   -2.38266308953317
H          -0.57317855388798   -0.35240999506244   -3.37600816830538
H          -1.13835842774280   -0.67352709082624   -1.78901872515971
H           0.43681756575446   -0.77763005778785   -2.04745747061034
