    26
        -50.46999616  Gyration_radius:  2.46252752198 Dipole_moment: 3.057
 S          -0.75842095290624    2.06914295359214    0.21696476063927
O          -1.58992412172063    1.23612165181299   -0.61371773607987
O           0.22878470778755    2.85326171702385   -0.48459725900367
O          -0.17721592540637    1.28390927156073    1.32097294864196
O          -1.70502823323428    3.13310507964149    0.93201394889332
H          -1.32927313161645    3.94808935703796    0.61657153061003
H           1.36870159411016    0.76265391452978    1.13998688867058
O           0.30797283841752   -1.66541775040683   -1.88070725514594
H           0.56325504265744   -1.97797322111616   -2.74945280837121
O           2.25667588906335    0.36622120897703    0.96631961836411
H           2.88828832139258    0.89469409895984    1.45542351529957
O           1.28311904056505   -2.20128922476324    0.63591068902508
H           1.04294127724053   -2.18538873938992   -0.30908054000423
H           1.82642254631423   -1.40865021975680    0.77988428853444
O          -2.23147880352568   -1.31493648894331   -0.89978528082798
H          -2.21528493572629   -0.33846968879325   -0.94663883585138
H          -1.44415789286719   -1.58727569832874   -1.40536195402105
H          -1.64720988895436   -1.34653386573890    0.54824229690586
O           1.35534269520140    0.72440808545508   -1.62376667726944
H           0.61357639243156   -0.72061437985008   -1.83136907401242
H           0.87288182285069    1.54054914873578   -1.39788753081881
H           1.94654111477260    0.57654938473279   -0.86928997258039
N          -1.03635249106313   -1.21068810800058    1.42043663015127
H          -1.50067780539099   -1.51386351651645    2.26820572433798
H          -0.79240722026558   -0.18589226629238    1.46137619378676
H          -0.12707188013044   -1.73171269416349    1.24934589012612
