    26
        -50.45234084  Gyration_radius:  2.45880330798 Dipole_moment: 5.680
 S           0.60673036080528    1.76339884584007    1.13335563705593
O          -0.60081357111899    1.65516979696542    0.32904978549522
O           1.11680097271623    3.07445279730713    1.29290405908637
O           0.36367186611985    1.10563595436966    2.48790220795395
O           1.67796743820710    0.86159862321652    0.45774691025562
O          -1.65970105397103   -1.51269464378313   -0.44661606335475
H          -2.25275065283616   -2.25616900257429   -0.56110218289591
O          -0.38785378847022    1.80772225907730   -2.29823603157178
H           0.13534903274793    2.55782710624654   -2.58328579612509
H          -0.47884474276112    1.88915461362766   -1.32339374593408
O          -2.85793975797413    0.79114374288951   -0.85891889993113
H          -2.19691984642667   -0.68959771834171   -0.59272774039221
H          -2.27138000876464    1.23865727484474   -0.22681900328631
H          -2.58012255065986    1.11075071084910   -1.72361432168693
O           0.68456930406822   -0.53724279254735   -1.44622342270795
H           0.35154354438737    0.19605560613630   -1.99894290131601
H           1.28351827606508    0.27900960142895   -0.27592923599731
H          -0.11288588297166   -0.99263286423830   -1.11737168683231
O          -0.22201641374720   -1.26533442239954    1.88462994809654
H           0.64378375215237   -1.64050281547315    1.57772436921266
H           0.07300983783547    0.13542673104805    2.30134408918611
H          -0.82000496022869   -1.32016960179279    1.11743007288396
N           2.13813500488522   -2.05601639181768    0.84773490681956
H           2.00967972073899   -2.09053078122057   -0.15679737406407
H           2.66346513827029   -2.87291413731459    1.13163112987650
H           2.69300898092552   -1.23219849236268    1.04852527018616
