    26
        -50.46999695  Gyration_radius:  2.4626058985 Dipole_moment: 3.019
 S          -1.47772241566070   -0.24514565947032    1.63100061754140
O          -1.36447496336825    1.11139828316105    1.15874130429151
O          -0.65489891493456   -0.57302271691502    2.76986790224498
O          -1.31117518512267   -1.19693300232254    0.51804367302608
O          -2.97773162546032   -0.45968989066225    2.12442077666871
H          -2.83724832438336   -0.66192243787701    3.04330833428133
H           0.16150250611020   -1.90125943354182    0.34356136071608
O           1.84914661629618    1.62412232823188   -0.58757439810137
H           2.61625009324134    2.17858788670518   -0.44028571543621
O           1.08053312392006   -2.22828399553583    0.18813654391517
H           1.10691152912971   -3.12636880344576    0.52001538574592
O           1.48360477904514   -0.67050076535651   -2.06138339617396
H           1.52251957217713   -1.33512898320898   -1.35360625546073
H           1.78740297638568    0.16223655040007   -1.65487905656052
O           1.60789740682753    0.12199512080379    1.54768523241388
H           0.81177012418284    0.03961129663955    2.10387650332464
H           1.72178178813856   -0.75827753885605    1.15685213486104
H           1.69851065697744    1.13668419058604    0.26573531114270
O          -0.73594392722832    2.42049572217762   -1.05291028135860
H          -1.06947476851853    2.17628170009422   -0.16676676266582
H           0.23277080866695    2.36467382132417   -0.96275223624022
H          -1.03322729146232    1.01070279806976   -1.65473803416468
N          -1.07350019520393   -0.04497121542792   -1.84567202091057
H          -1.29756644656053   -0.50918571394144   -0.92607872143673
H          -0.09194547089113   -0.35272482730963   -2.10898829228553
H          -1.75569245230260   -0.28337472432004   -2.55560990937867
