    26
        -50.46999616  Gyration_radius:  2.46232639196 Dipole_moment: 3.047
 S          -1.38002785670196   -1.70878729379083    0.27739489541633
O          -2.67743171471236   -1.12189142276166    0.04519086077217
O          -0.72378094294304   -1.29593787082174    1.49164145319413
O          -0.47594609800299   -1.55842476322752   -0.87721520954535
O          -1.64419870482471   -3.27680147327392    0.38261839441691
H          -2.59206566103585   -3.30461938685280    0.30674221939310
H          -0.66340187688559   -0.21902733507580   -1.80719296658602
O          -0.71837270509856    0.64264378287422   -2.28713725868361
H          -1.19165427128840    0.46805062545387   -3.10141253816488
O           0.52260309290095    2.16522417086385    1.20196066542096
H           0.33972452714427    2.98851099606714    1.65619769765333
O           1.65210442065022    1.61635399214222   -1.24650818731268
H           0.85092304546295    1.44162545343297   -1.76779281723271
H           1.33877092034957    2.00008250594412   -0.40654526040654
O           1.53306328012878   -0.15348932674733    2.26724157177501
H           0.68703720232416   -0.64302998191110    2.24193900601608
H           1.94272998384545   -0.60434212148526    0.82951076113271
H           1.27577045269843    0.76917409177524    2.08787131254738
O          -1.75458257862861    1.37489121048037    0.17016053204028
H          -1.53299377595742    1.38799157777087   -0.77399667663429
H          -2.17620996362910    0.50719747685248    0.30842634162939
H          -0.36035412507101    1.81571755244979    0.90751561818104
N           1.96730041680770   -0.79944406123446   -0.22589596870199
H           1.03580907889583   -1.22546298584879   -0.47564014432907
H           2.73385828751241   -1.40740294212276   -0.48852703726946
H           2.01132556605170    0.14119750904204   -0.71654726472723
