    26
        -50.46999678  Gyration_radius:  2.4625655176 Dipole_moment: 3.024
 S          -0.00967121959445   -2.21406482328895    0.04035978615925
O          -0.61553824775845   -2.51373546151219    1.31502161408540
O           1.31236265825432   -1.64483088400230    0.10461467509024
O          -0.88267307604122   -1.40067356742314   -0.82494886386142
O           0.10584140911146   -3.61682115913612   -0.70691178166840
H          -0.20170475396719   -4.20754892339706   -0.02784115085535
H          -1.90443698834496   -0.34936258022121   -0.08623975092005
O           1.17209553234077    1.86501088228043    1.24582318440442
H           1.51232988214908    2.34242610483149    2.00338198990634
O          -2.42970524974835    0.35239202935637    0.36916402093724
H          -3.33043369325157    0.02950276950215    0.41265522609976
O          -0.84373396375929    2.42806363284731   -0.54063796186806
H          -0.14339530463483    2.43317873189484    0.13793103694528
H          -1.55167432468863    1.86876868820599   -0.17988274009724
O           2.60126340596929    0.52883905540635   -0.67885531141912
H           1.35684155923558    0.60567631254677   -1.61865445072348
H           2.30670911910599    1.11732627627492    0.03990390753378
H           2.37558775697410   -0.36669235753567   -0.35752972702323
O          -0.39022122611807   -0.01124020734145    2.20115525480657
H          -1.23836545999845    0.25172794103635    1.81102949502718
H          -0.32192959932425   -0.96510612329482    2.01309047455119
H           0.66994647375884    1.09081332234128    1.61587079947906
N           0.36043201968419    0.59952607582152   -2.01833536266962
H           0.35027974651268    0.62226948044870   -3.03105124337976
H          -0.15303955435190    1.42456080660739   -1.59044849492412
H          -0.10716690151518   -0.27000602224191   -1.64866461561385
