    26
        -50.46999636  Gyration_radius:  2.46248344225 Dipole_moment: 3.045
 S           1.48523930712256    0.97408205694835    1.32222708698464
O           0.12273783737497    1.32712128546746    1.62956810590424
O           2.17209170376113    1.87733458160316    0.43117490465354
O           1.56964602769316   -0.42988446908356    0.88091504510144
O           2.31317606840317    1.02059502198884    2.68305287749489
H           2.96587873848186    1.68003393952343    2.47349208638472
H           1.64831826003169   -0.70621692796436   -0.73519982217444
O           1.58327553617284   -0.85648333574014   -1.70937127451242
H           2.46988313872108   -1.05712848390556   -2.01105303908114
O          -2.08267562080491    0.69067091348653   -1.26116523313983
H          -2.63319491782673    1.23691860229322   -1.82340530113167
O          -1.00753562484714   -1.81880647685003   -1.60422057427987
H          -0.09734370110264   -1.58206603924746   -1.84852484808555
H          -1.51331912973596   -0.98590223824042   -1.64205595428822
O           0.35892885792636    1.61482187756566   -1.50336594338432
H          -1.18198263381331    1.11150466606153   -1.27162834841737
H           0.93936479665906    1.89909573359529   -0.77387793052247
H           0.80391740713586    0.83863788806802   -1.87774956754794
O          -2.30949657027244    0.30164845054133    1.44635192039861
H          -1.53542395375679    0.84966327701566    1.68400882826768
H          -2.46288454164661    0.50727880727390    0.50621695357421
H          -1.45886889337969   -1.00028001818058    1.30310652579241
N          -0.72405217917661   -1.72994563881386    1.02036080177693
H           0.21446237098252   -1.25420694515430    1.08623881749774
H          -0.88072689242152   -1.94957286753151   -0.00665110533773
H          -0.75941543168347   -2.55891365072248    1.60155496807121
