    26
        -50.46999659  Gyration_radius:  2.46258123685 Dipole_moment: 3.031
 S          -1.76173059837648    1.18832184445079   -0.62306956334898
O          -1.23462135727750    2.52848429327734   -0.71135080024687
O          -1.87168791610024    0.65523401736678    0.71085964839582
O          -1.05252666842695    0.24154226347504   -1.50248069321422
O          -3.23302711917975    1.27795304199181   -1.22859608310585
H          -3.30229799184423    2.21226717038931   -1.39353085016776
H           0.53896279878582    0.52729531252964   -1.78529625260625
O           1.51645719758753    0.65221175414055   -1.85393534085852
H           1.67750693145764    1.05518278325762   -2.70779113357665
O           1.45915128737683   -0.19963494197103    2.05816918219250
H           1.98572390074476    0.10226865223605    2.79921426041039
O           2.12198353497707   -1.52575150241952   -0.25983783736789
H           2.12982626906802   -0.78206904318784   -0.88512398209679
H           2.07567731220252   -1.12156850755525    0.62644402800092
O           1.02251455008918    1.90719970431178    0.56030689848996
H           1.20556889802083    0.61881961816369    1.55381438670365
H           1.46233988345072    1.63321155811363   -0.25957321795058
H           0.15116279551729    2.23397344914255    0.27063527161013
O          -1.00573809383968   -1.40490209667462    2.12763912226953
H          -0.75099951148276   -1.94774862208414    0.68579889205930
H          -0.12061169299202   -1.05354879877392    2.33448187286257
H          -1.50040668823823   -0.62417927420712    1.80852338927870
N          -0.46421917458039   -2.05628461273333   -0.34299856393211
H           0.59645699673007   -2.02034819911670   -0.37734130707101
H          -0.81052013142317   -1.19622348493068   -0.84478730779701
H          -0.83494541224763   -2.90170634919656   -0.76017402893446
