    26
        -50.46999607  Gyration_radius:  2.4623574192 Dipole_moment: 3.053
 S           0.64740144842825    0.64062906818692   -2.01791647885657
O           1.72493588770271    0.56216830017443   -1.06492061343397
O           0.04019230081997    1.94175167564039   -2.15933009846746
O          -0.34314828433974   -0.42237716797588   -1.76868263418966
O           1.24997857161556    0.30296826063787   -3.45408037227499
H           1.04934521542018    1.10421887734407   -3.92605833014458
H          -1.69643300643715   -0.00876086988988   -0.93710198637198
O          -2.44778705595967    0.23259568200151   -0.34290929782737
H          -3.21209110768603    0.34922028648512   -0.90836224343759
O           0.44015576215321    0.70580070734219    2.39026640866712
H           0.54921518357285    1.30968049491662    3.12581280058182
O          -1.47304560491980   -1.18796819021209    1.82070330399331
H          -0.87373606680948   -0.52867827382256    2.21712005813304
H          -2.01301601285953   -0.69660377432303    1.17945758964601
O           2.37892544409054   -0.76930927053069    1.12607217397948
H           1.26222411614775   -1.70654970071322    0.56591098852263
H           2.40179669786570   -0.21877390160731    0.31840084657694
H           1.85533192170007   -0.24080405304938    1.75552446186412
O          -0.57546307049347    2.11701420586963    0.42752349001117
H          -1.42262390173993    1.66142091011518    0.30350549537869
H           0.15913330289194    1.26607578500194    1.61854592838644
H          -0.20830983508363    2.19594826904289   -0.47176902537071
N           0.35547470187650   -2.09953144648608    0.14672741027575
H           0.43470752406200   -3.08032366843008   -0.09406153856995
H           0.13545560607953   -1.51228812966679   -0.70081059924630
H          -0.41861972809906   -1.91752411605534    0.85043225217205
