    26
        -50.47250316  Gyration_radius:  2.4873036102 Dipole_moment: 2.882
 S           1.24522300169972   -0.73677296582784   -1.74675091952583
O           0.05396689208817    0.08938383870648   -1.70053769739999
O           1.02485907302758   -2.04555537327451   -1.14342303289257
O           2.42372227771500   -0.08243205887070   -1.21149211955591
O           1.54293492418833   -0.99458803885220   -3.28111000843024
H           2.39987039759778   -1.40437105724602   -3.23451754633816
H           2.21092081191988    0.44664819795918    0.27626973702126
O           2.04069154398667    0.82481124312411    1.17867265059941
H           2.89735093460011    0.88956877031516    1.60327249619892
O          -1.88671331137284    1.65058807707445    1.14375927314811
H          -2.38454032464234    2.41939121754972    1.42244162489612
O          -2.45218026093169   -0.26061631687033   -0.76003520971272
H          -1.68512130580852   -0.07145586275159   -1.33155769738036
H          -2.45949483926563    0.46247109367383   -0.10643751622475
O          -0.21666942644947   -0.17978665438174    2.34665074413021
H          -0.63072411784124   -1.36899293113812    1.36612746884232
H           0.63890805615127    0.15845037281581    2.02092959447465
H          -0.87036018992234    0.50116049271374    2.10554811427657
O           0.19750870606325    2.33515345598365   -0.26049068688228
H          -1.12040570493786    1.99226957083925    0.59732786734729
H           0.94388753786591    2.10153237894358    0.31073828105248
H           0.17164728560984    1.62284490827615   -0.93065477723135
N          -0.95259192924811   -1.97300022892824    0.55358613859830
H          -0.14121537886675   -2.08210469780269   -0.12165155714267
H          -1.70098692806100   -1.41864037598785    0.03773962437228
H          -1.29048771516638   -2.87595705604433    0.86559515375646
