    26
        -50.45234089  Gyration_radius:  2.45883107178 Dipole_moment: 5.680
 S           1.64253931811780    0.78577133611100    1.20270474146387
O           0.19780692534079    0.75646435980557    1.77646182743643
O           2.20293594993575   -0.59484914831782    1.52846349834702
O           1.51816839563640    0.91975883169609   -0.24066572215752
O           2.39233972762478    1.79968385243765    1.84625211163773
O          -0.61756789006539   -1.25356084897043   -1.81408530236182
H          -0.93985682091370   -1.88278129999446   -2.46045497330614
O          -0.19164361611962    2.68613723178726   -1.20408213175981
H           0.53644755118762    2.13302267534574   -0.84472221169120
H          -0.10103786206791    3.54830711392031   -0.79649366989552
O          -1.56397300405132    0.62968746808517   -0.08056885266734
H          -1.32356078338309    1.44785432813266   -0.55695141296749
H          -1.32894478193302   -0.09782794785003   -0.68628968694278
H          -0.50461750777563    0.67179423737195    1.04656593491454
O           1.06687316714649    0.47453180346657   -2.85792794798726
H           1.53977482958567    0.56247744468718   -2.01379719449714
H           0.02772755100227   -0.66165340171972   -2.28390576155459
H           0.59650777459301    1.30765817493318   -2.96597733118340
O           0.50866509566551   -2.16043698259326    0.52515690715701
H           1.56931107122732   -1.28385768807193    1.09914451234811
H          -0.27391328551616   -2.06147588814879    1.12707883788118
H           0.20398143048430   -1.87031860062928   -0.35360411964242
N          -1.60649584709592   -1.59225267802315    2.09815112522158
H          -2.15218846397211   -2.26597360503756    2.61986551063679
H          -2.23820062678098   -1.03566947115842    1.53433525218790
H          -1.16107830787129   -0.96249129727630    2.75534605937640
