    26
        -50.44744720  Gyration_radius:  2.51493489314 Dipole_moment: 6.607
 S          -1.27700084651956   -1.19413544601288   -0.35793377098137
O          -2.14670189986405   -0.81346210823529    0.72520044369279
O          -0.03539677287353   -1.82282098650938    0.09470843069244
O          -0.94205715423934   -0.04593624611746   -1.22389586049317
O          -2.03606568018005   -2.22667928875870   -1.24113520528512
H          -1.37756696478647   -2.40464380324575   -1.95599855134750
H          -0.81215720405682    1.32410444611935   -0.64614783788636
O          -0.59874528110776    2.25333991232571   -0.28258657994129
H          -0.66594516473679    2.84497729495257   -1.03397636536779
O           0.87981629194598    1.02519939802697    2.96312141496731
H           0.99417705818389    1.63246660514524    3.69604755895406
O           2.12696553659059   -0.61373259242813   -0.28393951267266
H           2.72353910709299   -1.08796136826950    0.30011112090512
H           1.22735636622900   -1.08952357417104   -0.17990710797201
O           1.67828626629002    1.65147440428518    0.66790706200038
H           1.90415584139749    0.71401380449924    0.21922087751793
H           0.79403394567057    1.96432822059422    0.24283342788200
H           1.42808443162340    1.41903426630241    1.65590834285069
O          -1.55874545079920    1.26703019338588    2.19503529794315
H          -1.86007960228820    0.42823670850503    1.77215554527236
H          -0.10859551155019    1.02395273901616    2.74838275026296
H          -1.50044591449747    1.89132279552745    1.46113003602585
N           0.05839250922941   -2.15732201062881   -2.83856717629570
H           0.01008062917221   -1.17613368070011   -2.57915000993332
H           0.29169482516243   -2.22922028280858   -3.82057279182536
H           0.80292064895994   -2.57790941067475   -2.29795154892332
