    26
        -50.43974041  Gyration_radius:  2.43010102232 Dipole_moment: 3.730
 S           0.63936174046445    0.14619909395721   -1.68096743195822
O          -0.30628029437877   -0.91740559651027   -1.35424984102708
O           1.43457597971678    0.56955502574387   -0.55660320369595
O          -0.03971163441237    1.24733456673840   -2.35206200905006
O           1.63796563994840   -0.46194975593864   -2.75281643998294
H           1.16274367558123   -0.38246167271806   -3.57467113951911
H          -1.09881469437427    1.78581719252293   -1.35156719899340
O          -0.77692267313112    0.39622347638196    2.62739327024748
H          -1.34856148459842    0.80389269780728    3.27921903891682
O          -1.78425590095067    2.02741022209071   -0.65866131550517
H          -2.53834507647407    2.36958491413859   -1.14340823283855
O          -0.23002724025944   -2.13551420828618    1.54822726279382
H           0.13269788511316   -1.63332538785241    2.28100630408380
H           0.51359568483500   -2.29000048816511    0.93739371986475
O           0.36555874425916    2.26665762657312    1.19864368343404
H           0.92219506829492    1.71811745907519    0.61006627422590
H          -0.33844151565566    2.60739871814839    0.63501699644271
H          -0.25376598728432    1.12632754027506    2.19880975583235
O          -1.91455689530138   -0.30167160988834    0.43576128049723
H          -1.24487995497582   -0.75239689339557   -0.23151181122348
H          -1.44112222814144   -0.27161182180399    1.34900655057796
H          -1.97976014748483    0.64846238143757    0.08644506964653
N           1.98515636536857   -2.23091189973115   -0.15612363944056
H           1.53835973775954   -2.53199329155019   -1.01329421031668
H           2.93373282041797   -2.58580297958388   -0.15903371031289
H           2.02950239554640   -1.21793530958451   -0.20201901228622
