    26
        -50.46999689  Gyration_radius:  2.46254169546 Dipole_moment: 3.018
 S          -0.42903721089848    1.96732290612144    0.92143309641740
O           0.91046130958912    1.85606467935973    0.40259898812261
O          -0.57794598501245    1.64662334873475    2.32019840814298
O          -1.37829852753702    1.23193553786828    0.06676292772186
O          -0.86963969734290    3.49349688685542    0.79392526224530
H          -1.01665561031237    3.71486925966207    1.70723241815604
H          -1.83602804501722   -0.26384508305110    0.56463498325610
O          -2.01227342887341   -1.20102608597708    0.82232289444548
H          -2.88044415923596   -1.21085149665346    1.22677694470997
O           1.88512515156756   -1.68764577078549    0.04187855863961
H           2.56261034528963   -2.24426910058265    0.42757139015290
O          -0.48783607074619   -2.27347274290066   -1.22143992796862
H          -1.11241922572068   -2.10953565905375   -0.49538777476305
H           0.39697557796415   -2.26769575396677   -0.81143883536731
O           2.22923156312120    0.56243778264892   -1.49175142968212
H           1.96420941825644    1.19274851130141   -0.79280696924633
H           2.33637527286055   -0.28225503939937   -1.01775410362951
H           0.76945538864167    0.39256091275516   -2.02016205004676
O           0.43830164338530   -0.80008835025329    2.03988972337880
H          -0.42422457085442   -1.18258180192901    1.81532361081993
H           1.40935033909703   -1.26857082543171    0.80774621833008
H           0.24534644713740    0.13460705444676    2.23748939768047
N          -0.28428226878053    0.20676742837605   -2.10640862486328
H          -0.65592566158691    0.49883576607308   -3.00239342192316
H          -0.74728204157176    0.72207302681517   -1.31175497568109
H          -0.43514995341846   -0.82850539102584   -1.92448671904324
