    26
        -50.43974026  Gyration_radius:  2.42973515075 Dipole_moment: 3.749
 S          -1.08987498806297   -0.86751025346748   -1.14263357009803
O          -0.91773574209945   -1.33914173224156    0.20770374168866
O           0.07146870162386   -0.14727290390110   -1.65756875667327
O          -2.30316018314476   -0.08138248150230   -1.32688659033261
O          -1.26218353200366   -2.14762076697134   -2.06322811459174
H          -1.72697968486660   -1.81626300317859   -2.82591838353790
H          -2.10526890497363    1.23027770317204   -0.51879013923236
O          -1.86340241073710    2.06221308510835   -0.01119599453094
H          -2.33046627122396    2.77959221109600   -0.44468069138956
O           1.15730500714543    1.28418059040880    2.16302428131717
H           1.22585495381113    2.03670860361132    2.75192531495806
O           2.64255271359695   -0.00554098572136    0.16340004564305
H           2.57417185002016   -0.11617738012634    1.11413398430967
H           2.36964621367542   -0.85705065829257   -0.22424669412152
O           0.68720192401996    1.83860815228612   -0.29823497188369
H           0.63526278777076    0.98037112405439   -0.89604473410266
H          -0.28881042805022    2.05989953510172   -0.13195266544860
H           1.10269255392355    1.54719465382285    0.59689567475521
O          -1.29520648493830    0.37318006159607    2.21524173815177
H          -1.80945952675302    1.02900858865155    1.73070039312686
H          -1.20728679443376   -0.38613304305211    1.60463480909226
H           0.26117481727229    0.87742614335697    2.31056330211207
N           1.57983712915717   -2.43697470659739   -0.72121220324453
H           1.41132726039144   -2.20466220865626   -1.69214862576274
H           0.70607596075553   -2.26362380764570   -0.23474037913787
H           1.77526307812959   -3.42930652091516   -0.66874076106539
