    26
        -50.43974053  Gyration_radius:  2.43007290747 Dipole_moment: 3.740
 S           1.02583855093273    1.40764584942596   -0.46949605001905
O           1.45098161693670    0.50916306420500    0.57334931839200
O          -0.42554021465495    1.48941823534035   -0.60852197319247
O           1.64892591068859    1.12964740787078   -1.75721314460509
O           1.51431974700875    2.85978476701189   -0.05859600549141
H           1.55450091948690    3.32725286109694   -0.88768469657578
H           1.09418757512354   -0.24291627641999   -2.22822045203936
O          -1.00803690022442   -2.49110564642809    0.66794777165864
H          -1.25537852159787   -3.38538195496946    0.42927090493579
O           0.64212646977322   -1.10676022809874   -2.46806068988657
H           0.59928905747867   -1.12349161848307   -3.42649102236892
O          -2.20498022596307   -0.08249401923693    1.46436139901964
H          -1.85092621038001   -0.83673586891861    1.94033814315977
H          -1.68290809536374    0.68654168770960    1.75758863102711
O          -1.50096620043344   -0.69547959142806   -1.09807218272317
H          -1.22114256774411    0.26178601524539   -0.77883734923379
H          -0.72820220847466   -0.97208047207942   -1.69415224280364
H          -1.48891812335829   -1.29723044688351   -0.26337062931075
O           1.50730300623741   -2.10543316875122    0.05885215874181
H           1.62146383361141   -1.18588019427375    0.37279012665682
H          -0.02158656342452   -2.42070935896226    0.55763947238861
H           1.51987571838467   -2.04738762480677   -0.90333786787907
N          -0.41664277386431    1.91577671530633    2.25803213601046
H          -0.11571222285950    2.38543354917051    3.10333920423966
H          -0.63138417951141    2.62507619440488    1.56822973969313
H           0.37351260221515    1.39556013292713    1.89031532020108
