    26
        -50.43974034  Gyration_radius:  2.43041369309 Dipole_moment: 3.716
 S          -1.20726863627034    0.06802904924599    1.34239515102658
O           0.15788545374299   -0.37372475727352    1.61423325112840
O          -1.63425210255610   -0.19081377478504   -0.00887700845601
O          -1.38592165882818    1.45692775580765    1.74606160055409
O          -2.14598548152193   -0.78340690149923    2.29609586931963
H          -2.07951159932837   -0.33706617538597    3.13509034400147
H          -0.39191601911184    2.29517045015372    0.89722840007845
O           0.31592635789347    2.74108495367487    0.34169739580977
H           0.60333883509019    3.50487497695775    0.84643536492933
O           1.42271786195406    0.29882379960812   -2.35519326400945
H           1.94715134856499    0.83208723377158   -2.95386912149357
O           1.70682892651521   -1.91534462225515   -0.65780134046732
H           0.94263749153255   -2.33349876468802   -0.22032427468185
H           1.45810449404281   -1.81341319587567   -1.57892400123111
O          -0.86826663580893    1.48991826768089   -1.93091916754641
H           0.51294061626633    0.70084375024617   -2.32536694207212
H          -1.29587150218113    0.83889843514737   -1.33894569790248
H          -0.65195803877857    2.24091999986878   -1.36654142469603
O           1.85706494617576    0.68619509240008    0.14458308688499
H           1.79296866843587    0.30639320996843   -0.80954609515896
H           1.36032587555354    1.57067727552087    0.16306020191494
H           1.26431589561568    0.07053561463700    0.74977029196138
N          -0.68599122751123   -2.87796005357965    0.42109165274389
H          -1.19127479727239   -2.05098726465878    0.11924723652862
H          -0.50116249516659   -2.75019565782388    1.40824135079939
H          -1.30282659705177   -3.67496869686492    0.32107715005948
