    26
        -50.43974029  Gyration_radius:  2.42985674119 Dipole_moment: 3.751
 S          -0.47003322157278   -0.58590977463406    1.63873133543807
O          -0.70520752701858   -1.40070640798744    0.47401611742658
O          -0.47095545065046    0.84617944253820    1.35376039067248
O           0.73324353614498   -0.96208151845447    2.37005142924688
O          -1.67689980556846   -0.84136667258540    2.63588560842987
H          -1.31618761271189   -0.61720000680803    3.48862387819576
H           1.93373996218154   -0.61438359979483    1.44793093892303
O           0.99242733638594    0.30275093615380   -2.56842587665978
H           1.72682163210362    0.40570649571848   -3.17502532702577
O           2.64149614058322   -0.30937168857814    0.80417778145174
H           3.39748546282575   -0.06424407659973    1.34186107827023
O          -1.18218945259164    1.77041521777916   -1.57406904637207
H          -1.06881273775470    1.17281482577297   -2.31626059122787
H          -1.86999743131856    1.36945449402427   -1.01187897982059
O           1.32962757322536   -1.88723081436944   -1.17679077004081
H           1.07502144575402   -0.60046386165923   -2.15890481288236
H           2.04473425428305   -1.68014402745637   -0.56438241342103
H           0.51538132693173   -1.87251439036695   -0.63456111075662
O           1.22955045711808    1.52581142476375   -0.32489239570998
H           0.39457699544831    1.38878274488448    0.29170734312432
H           1.89828758980052    0.85893240068476    0.04604914995804
H           0.95432399888601    1.20932517268662   -1.26456973244606
N          -2.97515588909566    0.30977237453544   -0.00126384911815
H          -3.91699543213858   -0.05966051931396   -0.04822554747698
H          -2.88098197793599    0.80994286527110    0.87396195902586
H          -2.33330118330491   -0.47461103620766    0.05249343278833
