    26
        -50.46629109  Gyration_radius:  2.43292034077 Dipole_moment: 4.195
 S           0.80467187677408    1.68065328441423    0.50735625927753
O           1.77397812600259    0.84047801216464   -0.19257002551216
O           0.38959787360684    1.09892237272439    1.76790894577528
O          -0.29047194171843    2.08442681887948   -0.34984640435115
O           1.58018977674860    3.00817969187513    0.89158390184607
H           1.74893611603577    3.42295867534592    0.05159942900295
H          -0.94260734111053    1.06073146734285   -1.46638921866189
O          -2.09797705667956   -1.34719269269463   -0.09021538908050
H          -1.98026518026168   -0.86447436007848   -0.92220640929225
O          -1.33317189188601    0.42695499534156   -2.11170074428408
H          -1.82439543967539    0.95090344409824   -2.74576864981913
O           0.17409859760364   -2.67229826566644   -0.05990464792724
H          -0.75002942585573   -2.31760249519547    0.00883541133457
H           0.96522162606311   -1.92506090859286    0.86946245015910
O          -2.25340049417200    0.93066082726698    1.38952231558871
H          -1.33485943055391    0.99982505967780    1.70261776514901
H          -2.32420054617479    1.60558777319424    0.70923281695039
H          -2.26003243216740   -0.65342888146745    0.57870238016492
O           0.99188325196939   -1.06452413865458   -2.01415530156684
H           1.40731335537304   -0.36029498241125   -1.48988070035398
H           0.51117522237854   -2.29112562106121   -0.90648971562447
H           0.14912216328977   -0.68470551271020   -2.30624169069127
N           1.59664336005953   -1.19395368319594    1.44303912607570
H           2.30049117374646   -1.64283620356091    2.01828527911819
H           0.99421080920343   -0.54858228725134    1.98221646173769
H           2.00387786150867   -0.54420235974833    0.73500636499698
