    26
        -50.46596257  Gyration_radius:  2.52231012273 Dipole_moment: 2.148
 S          -1.86795369131064   -0.80216092455117   -0.73543374327531
O          -1.53087744234058   -1.59425012098867    0.44502003146821
O          -0.69580385775064   -0.52339182465822   -1.54510216370491
O          -2.66950495011383    0.35783416715832   -0.42144463986459
O          -2.78440859551946   -1.73794045542556   -1.63620175959555
H          -3.65070483773837   -1.61818510389801   -1.26033987737191
H          -1.87260380300469    1.60256047730519    0.27002127511029
O           2.90328461462538    1.21681317219309   -0.37164481482245
H           3.33499723689417    2.03565278303623   -0.12646587125365
O          -1.30540793726807    2.28204403384596    0.70765307931815
H          -1.89494902446660    2.98068036381019    0.99576714094749
O           2.25798527868554   -0.70038019735377    1.34430449514754
H           2.60849195457447    0.01896263700680    0.76872392377187
H           1.58727270421178   -1.58988031033304    0.40740792241866
O          -0.16473154415848    0.14711392539476    2.05736234789446
H          -0.45186663177722    1.01442963784318    1.73225197107661
H          -0.74778209015579   -0.49958505311612    1.62684182669175
H           1.46114510395590   -0.32412210172654    1.78558239870736
O           0.52655871862424    1.89434948655532   -1.33025843437618
H           0.09024999547332    1.06365152701209   -1.58449254901903
H          -0.01714216418111    2.24732536509164   -0.60891442061154
H           2.04420231088343    1.47451087055893   -0.78978652272662
N           0.91097015471000   -2.14464915878964   -0.27930987263508
H          -0.00441862797864   -2.26006870197023    0.21025829813228
H           1.30222712422091   -3.02232838626778   -0.60142998593006
H           0.63077001094532   -1.51898606775275   -1.06037004550379
