    26
        -50.44833785  Gyration_radius:  2.53154598728 Dipole_moment: 7.398
 S          -0.65827674068377   -0.67025738734388   -1.16615769786836
O          -1.60963394809268    0.37393541828951   -0.97215522180057
O          -0.18953143843101   -1.24528510695615    0.18567126250459
O           0.52454488269085   -0.27877243892987   -1.90894332438880
O          -1.30850397214485   -1.87986129429689   -1.83071681200006
H          -0.52085488257330   -2.53315764069571   -1.94515130964817
H           1.07523561179360    1.19477754304227   -1.38409324023107
O           1.41437138734009    1.98051317627173   -0.89767945892094
H           2.12687648058658    2.34386634834540   -1.42666904397148
O          -0.57253137053695    1.70800656664407    2.58012453825952
H          -0.68887716544735    2.33697179707577    3.29279211235534
O          -1.82875464949993   -0.88217947403189    2.61359476662759
H          -1.46197546789854   -1.21714157159417    1.79109370213945
H          -1.49425914786786    0.01955574549928    2.70261989244254
O           1.35082608965943    0.37678602077596    1.30732727345264
H           0.48527202463002   -0.60545164472691    0.68298905716148
H           1.52704822720231    1.03740482737126    0.61048413848764
H           0.74562640080409    0.81714891048974    1.94445240695816
O          -1.05971302275670    2.75215594626040    0.21524566893234
H          -1.50805360365058    2.00890410932266   -0.22185390912242
H          -0.85481379379777    2.16272072233595    1.74309090413532
H          -0.18473291967712    2.78375067683688   -0.19641562905061
N           0.92020352493174   -3.11655037393973   -1.94832618842609
H           1.22687999037040   -3.77876310881497   -2.64844448337083
H           1.16173203201676   -3.46468458615090   -1.02994126460026
H           1.38189548108146   -2.22439319104135   -2.09293815006088
