    26
        -50.47304662  Gyration_radius:  2.48583448458 Dipole_moment: 2.177
 S           0.57298005268802   -0.31963604868628   -2.01780114240492
O          -0.70518416530532   -1.01041367037793   -1.89100667295107
O           1.38430810581799   -0.44216302102905   -0.82159359971187
O           0.41428479905268    1.04472070608993   -2.47772796492486
O           1.37383445789698   -1.08087805945341   -3.15525305032460
H           0.91951322373875   -0.80394528497167   -3.94391952300767
H          -0.16178260095576    2.04877989953697   -1.36505440511640
O          -0.55528003677598    2.57654634580705   -0.62302908758087
H          -0.79908175634348    3.42430518936471   -0.99796562025578
O           0.81051157124655    0.29531775488979    3.05112010466695
H           1.61051776194376   -0.15044277142398    3.33341580617761
O           0.19932120721742   -2.61977370358543    0.01268340433279
H          -0.37324911399159   -2.42347978228320   -0.74899071079298
H           0.93440268622844   -1.99569754197990   -0.14401921210432
O          -2.08511338197192    0.37881123324677   -0.09809275036693
H          -1.67794490347638    1.26118023177833   -0.16328536563053
H          -1.71041454440216   -0.13171754919860   -0.84721473982347
H          -1.54247327707651   -0.45470635808517    1.12309817129615
O           1.53212080005594    1.60232964657833    0.91218059685525
H           1.08895261622270    0.88541249988359    2.29527550938273
H           1.63182396288080    0.87259801045086    0.27094376940501
H           0.82807442709129    2.15672202774126    0.54287439991656
N          -1.05684165689917   -1.12319593841893    1.79894899651352
H          -1.73352945056915   -1.57124757315810    2.40638190220103
H          -0.34264044053969   -0.58509851022295    2.36128179412509
H          -0.55711036379269   -1.83432774253168    1.18674938012493
