    26
        -50.47304651  Gyration_radius:  2.48563356253 Dipole_moment: 2.178
 S           0.88233301337518   -0.97573464432368   -1.66385788454032
O           0.95799602204053    0.44272784423167   -1.99431941568286
O          -0.34610521779347   -1.31327800867002   -0.97050068296907
O           2.07790979139234   -1.44607356051307   -0.99491345951218
O           0.81568374353668   -1.74683911690911   -3.04789911216827
H           1.70663902581440   -1.66306101024233   -3.37082582868511
H           2.20647965199343   -0.96720289888756    0.53212747792378
O          -2.20102370914471    0.04686212127108    2.28083890836509
H          -3.01537299274676   -0.42849197905136    2.10968747677816
O           2.21100905499879   -0.58972482658188    1.44945880846700
H           3.07842535791723   -0.77745647615362    1.81150468267567
O          -1.67352534559499    0.74792150736988   -1.88344991207818
H          -1.52735533859187   -0.17194216006764   -1.58909505957496
H          -0.79397922406983    0.96987179985851   -2.23524344973091
O          -0.32696103605666   -1.66854736380037    1.69046007867517
H          -0.38720638355121   -1.68393865900050    0.71587259197732
H           0.56686243157542   -1.34179920427906    1.87417956256433
H          -1.47209117112126   -0.62532162015764    2.16259066507244
O           1.23000561251696    1.69709117551406    0.32955048628505
H           1.24934106413042    1.32828898010505   -0.57919399162407
H          -0.32194104490249    1.85586075648459    0.54597845112906
H           1.62068661176061    1.00522656650607    0.89284278533454
N          -1.38862817569002    1.85153205091246    0.50622069731554
H          -1.63662429644632    1.48150113290233   -0.45898959966603
H          -1.75515929176051    2.78607689280922    0.64748801343407
H          -1.75739817371740    1.18645072068052    1.23948771037747
