    26
        -50.47304689  Gyration_radius:  2.48595762647 Dipole_moment: 2.155
 S           1.43920948700237    0.78712514941231   -1.34618613580995
O           2.10924141519013   -0.34829210178647   -0.72295828324050
O           0.59294301453036    1.50499526363156   -0.41179929709163
O           0.76884850964603    0.41958925414315   -2.57662340152285
O           2.58408720654430    1.80594296014568   -1.75376464866863
H           2.96881810911715    1.38490951564352   -2.51519010570716
H          -0.58144173950342   -0.42204529793063   -2.35966733203819
O          -1.37594758158267   -0.96632112426036   -2.12198285062447
H          -1.70619411738161   -1.33051213915968   -2.94480317981618
O          -2.36089565827922    0.48542979783238    2.06041606322726
H          -2.37235000541809    1.32749035985910    2.51779331965561
O           1.87501482463137    0.67661991837228    1.71213189448230
H           1.37730620274250    1.29337566878845    1.14079609909308
H           2.33958633008599    0.14284835771323    1.04461143825685
O          -2.06504082120045    1.12958171750893   -0.44983930915128
H          -2.35488670820611    0.71244628381158    1.08804358433260
H          -1.13111841934834    1.41474511785293   -0.46182080015187
H          -2.09520613832979    0.36869010125518   -1.04945693294444
O           0.18890316517751   -2.10455013610209   -0.19798209673144
H          -0.09988218365920   -1.52062717438336    1.23593551216641
H          -0.49449662000030   -1.86243996241710   -0.84833635819154
H           0.97926298805910   -1.58148302608973   -0.45092588313123
N          -0.14362298535208   -0.97792462613718    2.15412359115558
H          -0.07964063945050   -1.60858808441863    2.94521008982903
H          -1.04284175354623   -0.42444454637158    2.18426755136381
H           0.68034410854591   -0.30656124697707    2.12800746120340
