    26
        -50.47304681  Gyration_radius:  2.48577195829 Dipole_moment: 2.170
 S          -1.30643181611899    1.64567076433245   -0.29286778987928
O          -1.57534669355977    0.23517145775150   -0.49856497543466
O          -0.05328127830146    2.06429856053390   -0.91025315545163
O          -1.40026996292751    2.06164750341443    1.09147192664870
O          -2.45700603963294    2.41581517603371   -1.06602309584382
H          -2.36562161775764    3.30314716970614   -0.73531810483035
H          -0.47565482472683    1.21434768944653    2.09411841403733
O           0.44367839458493   -3.13555555618672    0.15604294774292
H          -0.16096558431316   -3.68559502786691   -0.34419025922022
O           0.15537120498597    0.66007332507853    2.62190808450399
H           0.19572688782559    1.05744112015786    3.49321346307945
O          -0.06652167866408    0.04265954933103   -2.62663313536948
H           0.15137724330522    0.95675847091270   -2.37487202871523
H          -0.82964800112167   -0.13239123218067   -2.04234620937038
O          -1.11595673028351   -1.51860422313539    1.48134378647775
H          -0.13453879002421   -2.57972379049505    0.75090916242698
H          -0.63825758912055   -0.93174703230561    2.08699013408371
H          -1.42862835741231   -0.93154110827893    0.76630128144545
O           1.86055454504497    0.88715032197386    0.50385439268988
H           1.87770544651388   -0.40527994332279   -0.39618336381863
H           1.24342444063299    1.45456754085327   -0.00545239853534
H           1.42344774926551    0.74324430914647    1.36225655083309
N           1.72603145508679   -1.18255320435015   -1.11189427221072
H           1.26850268506162   -2.00604492935243   -0.63391567151795
H           2.60561815775075   -1.45325949353697   -1.53700741038143
H           1.05669074391591   -0.77969740769784   -1.83288828337699
