    26
        -50.47304655  Gyration_radius:  2.48571301996 Dipole_moment: 2.177
 S          -1.82810289575731   -0.01557450231102    1.07614105878724
O          -1.13535448305678   -1.13263941824414    0.46268236066360
O          -1.95070130889886    1.12196611216433    0.17172239193176
O          -1.29123426507525    0.36645536163531    2.36611560420651
O          -3.30541082964509   -0.52592882951310    1.34397905027161
H          -3.65303055301762    0.14885934216916    1.91749630895015
H           0.28191671088136    0.68707914193280    2.35274182315540
O           1.24340511260232    0.89896888206002    2.23203956301615
H           1.53367134303514    1.30032349057554    3.05263914715159
O           2.36239370804064   -1.59765807608930   -1.38490257455897
H           2.16067298693205   -2.47594159541840   -1.71100862201827
O          -1.67345224587133   -0.39201735127603   -1.98771091356298
H          -2.03043079046142    0.38176806203348   -1.51833980245851
H          -1.52383510247559   -1.00631830658753   -1.24298743593527
O           1.44125097765479   -1.59888705428458    1.05539773605443
H           1.62917601912086   -0.78033511243069    1.53925238555056
H           0.47876862412106   -1.57225419898961    0.89249165572650
H           2.11352151087250   -1.61074142121440   -0.41794812255280
O           0.51702203043273    2.05332332507716   -0.13118894937410
H           0.95406899540777    1.74796253335999    0.68392632771426
H           0.82648962018734    1.13277867470597   -1.37101091049659
H          -0.43587863556728    1.86290868472423    0.00284521749253
N           0.83604134716397    0.43031678977948   -2.17474084116828
H           1.12924565339944    0.87704688004442   -3.03619289395243
H          -0.16050355442914    0.06741193849109   -2.24796754444028
H           1.48029001436026   -0.36887334239354   -1.92547198020982
