    26
        -50.47304696  Gyration_radius:  2.48590034692 Dipole_moment: 2.161
 S           0.25427581062681   -1.35544745425509   -1.61259135927517
O           0.95067977607062   -1.32933314632008   -0.34032956819479
O           0.21346779828811   -0.04255774911015   -2.24597750971972
O          -1.05426018647424   -1.97355971651944   -1.54884015152573
O           1.13235154638641   -2.27522372045628   -2.56008015628165
H           0.54123295502972   -2.44104870443984   -3.28681889505951
H          -2.02865631955588   -1.33029502914412   -0.44653677162855
O           0.62284123795006    0.81943802100505    2.99906144458988
H           1.44874864722924    0.50823579983553    3.37244449090686
O          -2.56284043192953   -0.84183874890813    0.23171355427473
H          -3.46320112581640   -1.15784391852061    0.14110737531186
O           2.32803460912307    0.82306836441277   -0.89940623019538
H           2.14506655286959   -0.05866987067242   -0.52062532691229
H           1.75670739072279    0.80662176853209   -1.68663351455930
O          -0.44651366259753   -1.31691463673799    1.95194600184350
H           0.14802311610977   -0.00128340179158    2.68590640672970
H          -1.32953853203182   -1.16464011484793    1.58250265652592
H           0.12600516970654   -1.45079686471890    1.17220729686245
O          -1.39108791222305    1.42853151201061   -0.72645727793268
H          -1.94415997099834    0.75201950752848   -0.29624640025599
H          -0.22271340836670    1.93914548864973    0.19787101364582
H          -0.88201002052095    0.94483629749159   -1.41138033980235
N           0.69340127177456    2.15488651499694    0.70157150813176
H           0.68307709003410    1.68849213826047    1.64931866380373
H           0.82423110430664    3.15608091945448    0.79183186477517
H           1.45683749432640    1.71809673429806    0.10444121394722
