    26
        -50.46194827  Gyration_radius:  2.5117115172 Dipole_moment: 4.745
 S          -0.96677374580886   -0.87848765038053   -1.67246837074587
O          -0.71999833286618   -1.60977491104138   -0.44825417067360
O           0.26147174454432   -0.61378523880648   -2.41425489627096
O          -1.75186130199417    0.32938682008519   -1.48920716098698
O          -1.84213642842477   -1.84016371648906   -2.57866226343680
H          -2.12805847859671   -1.29059696558341   -3.30242195051831
H          -0.45454098171226    1.32893153177923   -1.10529883868024
O           0.29655017159918    1.90774689048307   -0.86324853654027
H           0.73471725281344    2.11000063267348   -1.69206727666727
O           1.04966555788106    0.09483905681398    2.91722400888642
H           0.88504319400140    0.64574018526387    3.68300602150542
O          -2.26372268579647    1.67429714752503    0.83994137764509
H          -1.53918331844114    2.29560605196488    0.72734559029978
H          -2.33029227890870    1.20631060729911   -0.00854654090721
O           2.25493715719285    0.86882627337737    0.70577653553227
H           2.15772550127991   -0.43805008140389    0.01442716132217
H           1.56369050544032    1.37869979282983    0.23714571590524
H           1.88181853337451    0.65890528250293    1.59659558485732
O          -1.31825205761494   -0.59448828917510    2.01458653508639
H          -1.20103416016888   -1.08039445725571    1.18215578485500
H           0.15767919924577   -0.22470528473457    2.61537490824998
H          -1.77232070950411    0.23362260979069    1.76295948525391
N           1.88044758953309   -1.34754255949809   -0.53800952187117
H           2.64286025637152   -2.01004779992660   -0.62461374735701
H           1.47890130065750   -1.04668152384404   -1.46708914758884
H           1.04266649590957   -1.75819441416766   -0.09239631712402
