    26
        -50.46194814  Gyration_radius:  2.51169571861 Dipole_moment: 4.761
 S           0.07132341634464   -2.11575378862582   -0.14921271857875
O          -0.59101173803555   -1.96174009562396   -1.44020842780225
O          -0.63870593824666   -1.43891857196015    0.91471774872652
O           1.48064304726234   -1.77421573569666   -0.22729531082143
O           0.00986040063924   -3.65894829057472    0.20695961070644
H           0.60421441051020   -4.07065171777324   -0.41338848237644
H           1.28060573663573   -0.40243544157193   -1.17981658077125
O           1.16450256262346    0.40672809534665   -1.71797262043284
H           1.01205984139021    0.09401376589487   -2.61168865406857
O          -0.70266594682503    2.70712352270423    1.34220322950477
H          -0.20163291937377    3.45967626489324    1.65796048889374
O           2.77041817083798    0.35464952014296    0.91299302970830
H           2.70668982305476    0.90740190053862    0.12926643485779
H           2.49402858740389   -0.52992417612789    0.62219088211084
O           0.47468224025857    0.59208177669551    2.36043316019346
H          -0.30270234387096    1.91010173093955    1.78240019214155
H           0.05629878199188   -0.20228455400214    1.99062051466755
H           1.38671106136746    0.58542097422912    2.00919334627759
O          -0.96891654107877    1.99965898275630   -1.18165264964886
H          -0.11492353368665    1.56866724427828   -1.38761841469592
H          -1.82452091322177    0.81873529613806   -0.91991666420230
H          -0.86802130527293    2.38575588018938   -0.27735682297201
N          -2.27230399253657   -0.15492318236252   -0.67347745494209
H          -1.76447286222669   -0.89095320693172   -1.23507684661427
H          -3.27799340035064   -0.17521036888617   -0.79933359984869
H          -1.98416665557402   -0.41405582460167    0.28507660999445
