    26
        -50.46194797  Gyration_radius:  2.51158392945 Dipole_moment: 4.777
 S           1.54504990794424   -1.19668526835736    0.82635735758856
O           2.27282329031758   -0.96353862603907   -0.41684213824572
O           0.21110328245407   -1.70645330185108    0.59266067591047
O           1.58775911563631   -0.03534341728995    1.69689300624106
O           2.31846479159203   -2.35072329315765    1.58952520190001
H           3.14182373985308   -1.95122694842469    1.85433905610528
H           1.31980910931285    1.10346516347303    0.48839098489834
O          -2.90119757434846    0.61852814120643   -0.90097687164832
H          -3.57274542754931    1.26054443909816   -0.66920000301361
O           1.14553557687350    1.76579983490089   -0.21073942871716
H           1.97862127726334    1.86503014938558   -0.67541198033599
O          -0.47457039836959    1.61959985400468    2.40796495439446
H          -0.28999321666973    2.26624375675823    1.72133484135425
H           0.28952254780826    1.01995439565779    2.40365810069711
O          -0.64210978872722    1.13225418408119   -2.15510243954551
H          -1.54036320988661    1.03609603230096   -1.75419906963197
H          -0.07324846871862    1.51072031189910   -1.45474246495084
H          -0.16529122466881   -0.27062028664739   -2.17722247420918
O          -2.03258178915697   -0.36171894750139    1.37473398508421
H          -2.62032835852251    0.19738726852048   -0.04489814922604
H          -1.29374831622066   -0.96297535311127    1.18663534276076
H          -1.63465126139022    0.38228513952527    1.86809372938879
N           0.24374136786904   -1.27342240678851   -1.98701071596904
H           1.22267153156593   -1.15242771731526   -1.60931342233152
H           0.19683049988298   -1.88344983989970   -2.79532050755575
H          -0.23292701410221   -1.66932329438202   -1.15960758089795
