    26
        -50.46194798  Gyration_radius:  2.51147836234 Dipole_moment: 4.779
 S          -1.22220123507347   -0.45857309182732   -1.67329558147681
O           0.19780993750027   -0.20872712854701   -1.79671221578882
O          -1.97053843427819    0.75217961761311   -1.35178460465116
O          -1.55230715057521   -1.54646359503031   -0.76991956948404
O          -1.70452438324917   -0.91608052753326   -3.11204003809002
H          -2.60295431987528   -1.20516795572320   -2.98203322271818
H          -1.55120788521430   -0.62212949398197    0.63431958122623
O           2.67741006495044    0.56475712529475    1.45528786707898
H           3.17000956644517    0.16084436994160    2.17015048189069
O          -1.53205414130994   -0.09060522152824    1.45601406456167
H          -2.36135699768941    0.39104229279862    1.46286959402902
O           0.04446949849557   -2.71461960323835    1.12358611207525
H          -0.28055656325753   -2.16455336544980    1.84158497584831
H          -0.55377229895327   -2.53869597905034    0.37892446307194
O           2.04433571564998   -1.39571171522791   -0.17288754752494
H           2.49677356099897   -0.16424790894589    0.80342135460780
H           1.47348704403877   -2.00619120988097    0.33382548274068
H           1.47353910600563   -1.03982031941780   -0.87306506747052
O           0.37680024208144    1.82693341394338    1.69071479886705
H          -0.27478832430686    1.10080711604009    1.76529963069386
H           1.26688049250369    1.39847541167138    1.72066531686197
H           0.25090250892749    2.17101942149738    0.25479632802495
N           0.09209949700828    2.22000918504185   -0.83213188737327
H          -0.89224854026584    1.89072582374436   -1.02638200112389
H           0.63779551923487    1.46259882251819   -1.27665760051164
H           0.29619752034461    3.13219451520083   -1.22455072541812
