    26
        -50.46742659  Gyration_radius:  2.4020117184 Dipole_moment: 4.781
 S          -1.02502070618199   -1.37583128629684   -0.13948837025700
O           0.24773221282760   -1.26161360683178    0.78333079224699
O          -0.89343160318856   -0.33585184129031   -1.15970846054724
O          -2.20154594957002   -1.19292842660532    0.67508940753472
O          -0.86575371620123   -2.70692324474932   -0.71988469724140
H           0.55264018925030   -2.71729738250512   -0.95960652713152
H          -2.36766704534530    0.32099003645376    1.19538457842466
O           1.40624130580922    2.15567699882069    0.02596101669733
H           1.84181038257544    3.00009155402480   -0.09453362361657
O          -2.36296502674171    1.24346541040119    1.56448203131892
H          -3.09623157563708    1.28015552873349    2.18048163224614
O           1.63373204675809   -0.05373988842766   -1.66123466083273
H           1.83598131341023    0.64845121257514   -1.01963703819741
H           0.64631357251669   -0.09465834128965   -1.64721720148951
O           0.25860388658991    0.89292192000695    2.16930958061181
H           0.22492159983246   -0.44956125636575    1.38263724843259
H           0.77312858348732    1.43331799456461    1.54266953315717
H          -0.67318653914302    1.17314498724001    2.08447876986576
O          -1.11057660933086    2.26895955962771   -0.69064317986978
H          -1.13981589614401    1.35467277666206   -1.03867758634089
H          -1.67493595194199    2.23386158658627    0.09481059746961
H           0.47140085526886    2.27424023578027   -0.30666931451545
N           1.64720486920263   -2.58550057105993   -1.05468288120817
H           2.05218546718149   -2.77437218284472   -0.14216954174725
H           1.78052178231378   -1.54085956626633   -1.29498443096689
H           2.03871257240143   -3.19081223694407   -1.76949768403001
