    26
        -50.45028655  Gyration_radius:  2.64150648231 Dipole_moment: 5.320
 S           0.51013954889732   -1.12086578422184   -0.98530156385863
O          -0.60886146956912   -1.82663199747712   -0.21282131766926
O           1.57595389975802   -0.72490527639435   -0.12226635686323
O          -0.07857730776515   -0.03897317878339   -1.75209013746175
O           0.99372047457163   -2.21492640385253   -1.94526323354639
H           0.17646575801016   -2.38710103366414   -2.53144221029838
H          -0.52642133610860    1.27398583700762   -0.85199987886855
O          -0.91518590773714    1.94342430532693   -0.24434854792168
H          -1.28880145485443    2.63165125254557   -0.79732894578725
O          -0.08963942008791    0.32771449651793    3.28375197738811
H          -0.48001071174281    0.66443772045209    4.09157135325722
O           3.05436480672920    1.31877560517390    0.84040255044700
H           3.61506457652341    0.88872470372763    1.48885907557844
H           2.56038955705681    0.60056493352375    0.40592900517973
O           0.82258361949113    2.39014607164122    1.92740244185203
H           0.22617183340648    2.37923684840915    1.16456448057555
H           0.33238628694938    1.10890502725091    2.83538114889345
H           1.69673009208807    2.13157233556618    1.56951394194430
O          -1.72095670280810   -0.18300303541123    1.29217623168109
H          -1.10218805438268   -1.17133939777943    0.45910804234337
H          -1.13643326591329   -0.10799187244706    2.09502162541521
H          -1.60326520247315    0.65785968290434    0.81464221576269
N          -1.26838712471277   -2.22545353575755   -3.15598922233128
H          -1.49391492031273   -2.41421081729281   -4.12363399203687
H          -1.30115653964470   -1.22524171832775   -2.98551971375355
H          -1.95017102537524   -2.67635477862432   -2.56031895991048
