    26
        -50.45059457  Gyration_radius:  2.46317191434 Dipole_moment: 4.137
 S           0.69244913428128    1.45542750331904    1.18575046136680
O          -0.51038593339220    2.22677286582326    0.61724983391977
O           0.02719658041161    0.37844162096915    2.08673684655589
O           1.35022852989042    0.77128207471843    0.08893287948798
O           1.51746659523521    2.28722032479491    1.97853518075134
O          -1.29978347255340   -1.03416807030869   -1.52635476979282
H          -1.65033665314189   -1.66557077977306   -2.15514496254337
O           1.69058338684040    1.91451968671300   -2.30767872077738
H           1.77176440140222    1.43105892877973   -1.46350101590620
H           2.16976808284659    2.73722630737838   -2.19813016481034
O          -0.91076119887402    1.63723613907907   -1.78267805625441
H          -0.02732904791283    1.79118648511219   -2.18444589366599
H          -1.05555390079301    0.66996460329402   -1.81797044790004
H          -0.68108306798164    2.00033090372856   -0.38962840934091
O           0.96857907687720   -1.81358440117710   -0.62711900240510
H           0.81149598960143   -2.23289583060399    0.25090003027463
H          -0.39632290958675   -1.38833344212428   -1.23401585620893
H           1.31658099380882   -0.92900032344871   -0.42255630800167
O          -2.15625495409422   -0.13560044299233    0.83755092225859
H          -0.83790470224473    0.12436269093333    1.63973914963738
H          -2.50605874918796    0.73895266790572    0.64545684008353
H          -1.93241670124420   -0.54410527153679   -0.02827526538894
N           0.46216194050274   -2.60156783990029    1.93320020292483
H           0.48456246363539   -1.66555343861232    2.32562146110465
H           1.15204773553667   -3.16102407157282    2.41838551287862
H          -0.45069360986010   -2.99257887049838    2.12943955175006
