    26
        -50.46742660  Gyration_radius:  2.40205253303 Dipole_moment: 4.782
 S          -1.62558367295542   -0.56563668804354   -0.03652099417858
O          -0.47229960888431   -1.38680362185350    0.33157572860478
O          -1.05918986171610    0.67026711118266   -0.83425149450430
O          -2.33837689959479   -0.07917142785416    1.11948309038689
O          -2.44686681168672   -1.23195775955304   -1.04428932350466
H          -1.60710387625149   -1.08353152815706   -2.20287905283061
H          -1.36039797445003    0.54882928733615    2.23309355175792
O           2.48416536062260    0.64839789071211    0.18596189647473
H           3.42582473165544    0.74703007324046    0.33040975334404
O          -0.71879110751197    1.00930343873037    2.83593165302399
H          -1.25125779719372    1.40677571808918    3.52657410089928
O           1.28082155122784   -1.16004267688294   -1.56387826554822
H           0.69628573122336   -1.41481584155242   -0.80871981864458
H           1.78945708181946   -0.41126707212439   -1.20864349205614
O           0.30858055980753    2.24731760817233    0.65103605844159
H           1.17971552164050    1.84718454096208    0.47650470063376
H          -0.57797557380348    1.33090003202638   -0.24186685337196
H           0.03447826143320    1.94982183552580    1.54001358682885
O           1.35519368110543   -0.69578080837698    2.13012206662865
H           2.14227786149417    0.09433467606510    0.94402897649287
H           0.81723951599953   -0.09900429792200    2.66967294927389
H           0.70104669155788   -1.14180606969449    1.55471155088609
N          -0.87078285327177   -0.86677579757464   -2.99989694839134
H          -0.95436167997484   -1.51524978730711   -3.77648315280999
H           0.09179225870856   -0.94123245668584   -2.51527781795488
H          -1.02389109099240    0.09291362153661   -3.29641245988964
