    26
        -50.47250314  Gyration_radius:  2.48726114026 Dipole_moment: 2.884
 S          -1.81913995875824   -0.99895211541782   -0.91495604217619
O          -2.41526604930113   -0.74308383327889    0.39066489515859
O          -0.44084488356923   -1.43709089413794   -0.80569389688719
O          -2.00083757624827    0.11642669969588   -1.82400241524016
O          -2.61886317433528   -2.21383167206545   -1.54279119617106
H          -3.46001043406098   -1.80697236676156   -1.71958354172647
H          -1.08476373405845    1.36664289231132   -1.45535274251134
O           2.71478419495027    0.27731510430978    0.37828655525436
H           3.65619258393281    0.37132075310084    0.23199991978099
O          -0.46149410968029    2.11187641231140   -1.24930800783439
H          -0.86945831379301    2.90275261431173   -1.60486481199434
O           1.24195021753707   -1.87968535427327    1.25836679956778
H           1.92814368541435   -1.22869798723656    1.02283543261442
H           0.70599670597967   -1.97959202379947    0.44990624263236
O           0.66371654474335    1.90502342679115    1.23252021029929
H           1.50512726275931    1.46259546970698    1.01932014890846
H           0.23961539578548    2.07975412263020    0.37105509384585
H          -0.15519958568551    0.70932263420789    1.90044828435561
O           1.41739503813306    0.15584974705035   -1.87702109190090
H           0.75625973820395   -0.52442499736639   -1.63771476858028
H           0.91525216696295    0.98380478269022   -1.89564441664525
H           2.29202579318370    0.21760274966953   -0.52738020489454
N          -0.58356406730454   -0.22436785815152    2.17152847264218
H          -0.90006657680705   -0.22878071641647    3.13414473663264
H           0.15751594838121   -0.96621161805661    1.98724833633216
H          -1.38446680236458   -0.42859598182565    1.50598800853703
