    26
        -50.46147054  Gyration_radius:  2.59193861716 Dipole_moment: 4.230
 S           0.54365326303777    0.12553269501789    0.49526888815319
O           0.96927147589757    1.41929180437288    0.97213938013026
O          -0.79831059853820   -0.26548126391337    1.21663459488105
O           0.26456536652086    0.08609274577946   -0.93339542860824
O           1.46415670662970   -0.96584814461063    0.85808741526232
O          -2.28271967104686    3.27351803290684    0.03677869005843
H          -2.42344759804690    4.22149828559858    0.04365372976981
H          -1.47522353276558    3.11900239532806   -0.51058615419201
O           2.61721250087322   -2.13925352888924   -1.28359200683888
H           2.32804825263488   -1.68714894115350   -0.46591559202891
H           3.16892190396857   -1.51044694177754   -1.75117201523695
O           0.04494524644044    2.76228160729615   -1.15571880955796
H           0.56562304949158    2.59747380495316   -0.35193685313526
H          -0.02757287996748    1.87377343248896   -1.53354295013952
O          -1.35030115391363    2.00810138574403    2.19962393716220
H          -0.41051302580492    2.19409700674564    2.05152241615269
H          -1.83183822988996    2.48479671358663    1.48340615654811
H          -1.14088722189131    0.58116261928670    1.65433910958139
O           0.01759361852028   -2.32399346992305   -1.94008650342034
H          -0.25200507698739   -2.78222082374014   -0.54564302200936
H          -0.03568011961147   -1.35785269991295   -1.74814678691414
H           0.98314327731251   -2.47679802403528   -1.99522854484190
N          -0.25739180638639   -2.84626195355979    0.55415104008706
H          -0.09364032422445   -3.78562314511905    0.90173479959674
H          -1.11701585003590   -2.44429495125591    0.92502453990163
H           0.52941241778368   -2.16139863121149    0.82259996962847
