    26
        -50.46147054  Gyration_radius:  2.59164273147 Dipole_moment: 4.225
 S          -0.64188870233604   -0.10291226195242    0.36660912846346
O           0.13750047693036    1.14163958221340    0.93048110058711
O          -1.88573090242834    0.47875483096204   -0.16709528976359
O           0.16725498257809   -0.63104162821100   -0.72279887153998
O          -0.86045118100608   -1.04151712113553    1.44069804710795
O           2.85914393233385   -1.41630622985796    2.39230176045966
H           3.23910039946162   -2.06257424623549    2.98927703120141
H           2.33092175384285   -1.92777235405363    1.73276778203991
O          -2.34691966665122   -0.18238491133300   -2.74444850178722
H          -2.30199685522623   -0.00104621371118   -1.78436711707556
H          -2.47345837542061   -1.12863003372814   -2.82815842593010
O           1.16505409539952   -2.65521528051262    0.75026638576188
H           0.34147982962192   -2.37913178848284    1.18612293717105
H           1.14403558559949   -2.13554947496581   -0.06635961773819
O           0.14352280627223    0.81323109218176   -2.91278124370500
H           0.37161194102093    0.20129658934603   -2.17343833650868
H          -0.72067637760112    0.46701690057457   -3.21625573634606
H          -0.30375116263465    1.94761229615518   -2.05254548790983
O           0.83143191575955    0.14819243353899    3.16041344992003
H           0.11882714349285   -0.48686970499305    2.99131022562376
H           1.66938004412677   -0.33572504215605    2.97161965743525
H           0.48648756217246    0.86797461377509    1.84095653468481
N          -0.75843414609554    2.52512378078682   -1.23187384715221
H          -1.29235942809985    3.32616118612831   -1.55318637142447
H          -0.04748119600972    2.78617056846539   -0.55034875279006
H          -1.37260446509837    1.78350240719672   -0.74916642078763
