    26
        -50.45916307  Gyration_radius:  2.70803600508 Dipole_moment: 2.856
 S          -2.69665035878797   -0.28503051397987    0.23675932327747
O          -2.52429713493625    0.92582210753898   -0.56037533563079
O          -1.83821179362154   -0.29674912276487    1.40751424770186
O          -2.58557696525089   -1.49228423562359   -0.55890795879284
O          -4.18704032493226   -0.24200033188507    0.79178214488212
H          -4.71399514017102   -0.35671516719049    0.00616089037618
H          -0.97901823392591   -1.76439119228552   -0.53156310990718
O           2.06682667867819    1.30397760085019   -2.42901226240107
H           2.09391427540113    1.13260481808991   -3.37079698761620
O           0.00060761748056   -1.70466648427103   -0.41019812441372
H           0.15704423501706   -1.86359336633698    0.52581506000531
O           2.05386074515394   -0.57935624914031    1.60235468367382
H           2.67865060274561   -0.62199921431374    2.32670570471017
H           1.38532009734766    0.08711288877332    1.84553322096181
O           0.09386334539369    1.27498934626127    2.07906521499645
H          -0.68331389315948    0.68527499707037    1.87990057571682
H          -0.16050951832262    1.79528033898475    2.84191390095502
O           2.62715409107932   -0.94678927234476   -1.09541384088205
H           2.61959139921825   -0.77755121188039   -0.13887233293914
H           1.86570152503029   -1.52309458210060   -1.23474177872227
H           2.43859348413218    0.50334408852233   -1.98876574278588
N           0.06816468585499    0.97426100343252   -0.66073242036863
H           0.33909909486867    1.39858615896896    0.23329669512419
H           0.67209752097611    1.31666064865429   -1.43509043118340
H           0.17845405016374   -0.06987224926391   -0.57816207353446
H          -0.97033009565191    1.12617919616297   -0.78416923326424
