    26
        -50.45916330  Gyration_radius:  2.7079509255 Dipole_moment: 2.846
 S          -2.05555030100729   -1.46062526401369    1.02410015660272
O          -1.22093096406155   -1.98955359163699   -0.03956901737608
O          -2.65852262106538   -0.18023099295152    0.66588340054884
O          -1.37823429890043   -1.41456147259705    2.30553486829334
O          -3.25945460684362   -2.48860541240424    1.18298248451487
H          -3.71079321617905   -2.17433923927592    1.96115669671721
H           0.10643774844604   -0.89287077709615    1.88202416514284
O           0.75433162994527    3.36193893749193   -0.05851883561326
H           0.77758889632120    3.99937061913381    0.65574416628293
O           0.89810772505114   -0.54062713553212    1.40544111382175
H           1.20853675176766   -1.26144040533759    0.84871432982429
O          -0.41713202507897   -0.89398484062713   -2.23221035124587
H          -0.84088674297304   -1.31545627441835   -2.98058441275190
H          -0.75681582064289   -1.36710393110805   -1.42459514847379
O           2.18056244412663   -0.63584449728351   -1.39853412509640
H           1.28441313422488   -0.76761019292438   -1.75865889418050
H           2.79484417368974   -0.94991702435128   -2.06241295987243
O           2.59057403122078    1.46571436587882    0.37853908210760
H           1.54701874497844    2.78598247030219    0.05555507477285
H           2.26284520610748    0.96221617018026    1.13375394592740
H           2.58617687605360    0.82332238638558   -0.35007232743467
N          -0.54521214075729    1.01575538578387   -0.24927510738988
H          -0.46463532332326    0.66606538640889   -1.21057641071240
H          -1.50215635675752    0.74624485843818    0.10887489877327
H           0.12904621473836    0.47853136097279    0.35562605870844
H          -0.31015914901234    2.02762910061059   -0.19892283183904
