    26
        -50.46580831  Gyration_radius:  2.41879402872 Dipole_moment: 3.787
 S          -0.32344668020725    1.04977375343913   -1.62424462212464
O           0.71413187802468    2.05850750941794   -1.44945615592239
O          -1.26609824559601    1.01918205140484   -0.52325685594826
O           0.24241112874294   -0.25555511729670   -1.90809248270301
O          -1.15228043658646    1.48014222308290   -2.89888330727021
H          -0.46935531546102    1.57569414807738   -3.55429703778973
H           1.16582924947030   -0.71122656100219   -0.59164909802457
O          -0.54502050969636    1.54074422726966    2.03779762702099
H          -1.02140651909799    1.54256634903481    1.18787609554032
O           1.64778503668211   -1.03761307895190    0.20154190637349
H           1.63084282676511   -1.99698852563050    0.07936337934476
O          -0.00370969466676   -2.93560694599534   -0.98676745180313
H          -0.81472726856221   -2.70910905240456   -0.51356090709182
H           0.09105321112073   -2.23306299097430   -1.64125402958386
O          -2.13100084898312   -1.39874478700697    0.14585182453057
H          -1.82109568523561   -0.52314260397514   -0.17478111901786
H          -3.08833882232640   -1.37113126648123    0.12164641779057
O          -0.30975574486587   -1.07447351098920    2.18834383764340
H          -1.06274356522896   -1.36272035057905    1.64697225713525
H           0.45909209748496   -1.15592556303521    1.59786369052116
H          -0.54417599141226    0.58653153361153    2.31046032738693
N           1.75766211735752    1.59246525290195    0.88433148825548
H           2.50975795346252    2.18184317301524    1.22335674192767
H           0.85636072333014    1.65561056922123    1.49983618010389
H           1.43638559734780    1.87812852830259   -0.08944326482083
H           2.04184351806393    0.60411100535724    0.83044455845827
