    26
        -50.45476208  Gyration_radius:  2.60398059587 Dipole_moment: 5.800
 S           0.82195506566671    0.81322462323162   -2.36158238213928
O           1.36369167382232    1.29426424305976   -1.11345535740362
O          -0.60836788520559    1.14383229485369   -2.46166039607104
O           1.06818800761038   -0.58838944437580   -2.62915521855890
O           1.54046407513656    1.61396084293203   -3.53041413320495
H           1.36973710525680    1.05770300333453   -4.28417873929987
H           0.92730932096750   -1.55124816307934   -1.26723915138337
O          -1.66485111598625   -1.59501589885986    0.21360141219315
H          -2.19758034516424   -2.11774326631590   -0.38633574225742
O          -0.21561891230446    1.27688725634290    2.38142038359942
H          -0.08993145813573    1.76334200002872    3.19605873686924
O           1.97267722826382   -0.02538066324271    1.09686915460902
H           1.39473356877456    0.50045481725835    1.66626134291100
H           1.99075131432195    0.48299062871360    0.26237588821176
O           0.78163538770423   -1.93279417264200   -0.37333519600513
H           1.31039382680907   -1.35981493918555    0.22417312992735
H          -0.69221084202370   -1.77766353721376   -0.04933242220447
O          -0.53244999667501   -1.33289814062807    2.72527469263001
H           0.34826944075641   -1.65756078046673    2.51339317708794
H          -0.41388038745976    0.34042315365725    2.62955172501194
H          -1.09269019466904   -1.58310750999352    1.97341375848368
N          -1.48501499479440    1.06245210215211   -0.07143002853497
H          -2.34355693437902    1.59476378182239    0.02741805209649
H          -1.08614587804411    1.17741119784266   -1.08328756017792
H          -0.80270040146602    1.36602283029479    0.63795802929474
H          -1.66480666878218    0.03388375047867    0.06363683431703
