    26
        -50.46580831  Gyration_radius:  2.41878573983 Dipole_moment: 3.785
 S          -1.24361354707522    0.84836167799140   -1.25653273350928
O          -1.06828798545030    1.32784004319144    0.10031497741576
O          -2.22902482500096   -0.22136944574540   -1.35285106256125
O           0.01181984243714    0.47643236871020   -1.88122265818866
O          -1.82559115153721    2.06513150139627   -2.07961952460099
H          -2.00597469786690    1.66337007555757   -2.92290209679126
H           0.62289677908503   -0.84295584477957   -1.05701297695188
O           1.04327654524359   -1.56630196898352   -0.53932443244648
H           1.97977380101062   -1.46796740915071   -0.76044399989911
O          -1.26827183547838   -0.29255278440533    2.26489394828550
H          -1.37378425258431    0.45902701211143    1.65387974247805
O           1.42013638173855    1.98727100851247    0.74464173691635
H           1.39579579521334    2.88613909501651    1.07523071905646
H           0.50917471563604    1.78002791734746    0.44012976822879
O           2.78813943510108    0.47749920574566   -1.26009352706014
H           2.00853168106969    0.59886980533676   -1.81539409021816
H           2.62840672581274    1.05234748317334   -0.50049661960078
O           1.34342774540064   -0.46220970035640    2.00474729216719
H          -0.28729878097391   -0.35436396310416    2.40198643477945
H           1.34469499765800   -0.96072690469044    1.16934700066297
H           1.56623612557808    0.44666643652458    1.74500157701749
N          -1.48049305389187   -2.02048521890522    0.36631479029659
H          -2.02749498197215   -2.86715380151327    0.47538482060260
H          -1.88420309515622   -1.37964548748618   -0.38163104438404
H          -1.45958166666846   -1.40700624318979    1.27095083014822
H          -0.50869068738094   -2.22624483831683    0.09470113814685
