    26
        -50.46489113  Gyration_radius:  2.55923953969 Dipole_moment: 3.826
 S          -1.90846575870880    0.33577814558239    0.44374344686898
O          -0.87646988335664    1.16177903230684    1.04030579054201
O          -1.46548196448695   -1.05013773247326    0.30213620008078
O          -2.45022458467627    0.85981332113441   -0.79105802622541
O          -3.11147757327098    0.32076484588798    1.47633939547521
H          -3.86757755450501    0.17406430135597    0.91656117682509
H          -1.34733530366218    2.10057043205557   -1.24069749864456
O           0.74560129769121   -2.38798685792902    0.75470914002210
H          -0.15131753384407   -1.98423943108437    0.71638153764070
O          -0.58619672188236    2.71133898362837   -1.28158496479275
H          -0.42427598116207    2.94243178741759   -0.36300912219594
O           2.60363235652085   -1.15618925862008    2.59444694179023
H           2.68793937595488   -1.40780455849002    3.51468429482812
H           2.00341861891611   -1.79418205418815    2.18711810201609
O           1.35289437258245    1.01476585376821   -2.03840599407008
H           0.75746698769742    0.28723595845462   -2.31201685832975
H           0.75034352046467    1.78113828909047   -1.91414589966449
O          -0.65448072852823   -0.79126458705574   -2.23264479946593
H          -1.36052577857315   -0.26223984833213   -2.61378869987309
H           0.78015151073845   -3.00819486955023    0.02355787385789
H          -0.96067565653819   -0.97662209588319   -1.32502746383522
N           1.52260562450628    0.23505116290216    0.43297184785434
H           1.63795807366890    0.58658551768286   -0.57735122583970
H           2.29848796774645    0.45747249867690    1.05277106125429
H           0.62420575634089    0.64508957904043    0.79617349503784
H           1.39979955035322   -0.79501841537339    0.43783026885999
