    26
        -50.47114523  Gyration_radius:  2.41083674109 Dipole_moment: 3.641
 S          -1.04569737973430    0.61425531216262   -1.59809855274584
O          -0.58663776691364    1.81609626501984   -0.92222951302984
O          -1.97231848881651   -0.17463350489547   -0.80256918041537
O           0.05393820265787   -0.18425214345666   -2.11193974082676
O          -1.86611294039611    1.11962418917401   -2.85483798761563
H          -2.21422675677185    0.30831074401639   -3.20888634617359
H           1.91298979753652    0.89383141640647   -1.87370452596158
O          -0.03633647775865    0.02221850014792    2.53000078570613
H          -0.08074099843614    0.20404801343606    3.46937041640981
O           1.98886886931500    1.49622826367315   -1.12386456042736
H           1.06637007085495    1.82230141918241   -1.01926624452447
O          -1.06432310738003   -2.08354651078654    0.86888879607869
H          -1.51778153899015   -1.48565368105343    0.24434613789807
H          -0.79343236705688   -1.52653500774934    1.61095749989944
O           1.09436718208785   -2.14844766305197   -0.65226495245209
H           0.73622132313495   -1.54491243922528   -1.33765526310554
H           0.30581729298062   -2.38839596276264   -0.10951918299679
O          -1.87160546049294    1.41699092108950    1.32979637640692
H          -2.30891271917879    0.73748554245332    0.79105312565055
H          -0.73923572091009    0.59830738491939    2.10504955954918
H          -1.37585295276552    1.90916120064841    0.64997326340839
N           2.08415507834892   -0.27748481045751    0.82944903173625
H           2.98593472423254   -0.43338139887843    1.26530579939944
H           1.35350394961283   -0.09076570349862    1.54334613813635
H           2.12715352241053    0.52323281036130    0.12959367782905
H           1.76389464240937   -1.14408316685614    0.24770544215796
