    26
        -50.46212421  Gyration_radius:  2.57884380433 Dipole_moment: 3.964
 S           0.98063741512193    0.23865068813083    2.13419210902169
O          -0.41762530263066    0.52050292051768    1.82879214033274
O           1.87514080777140    1.33478349492946    1.83744175263921
O           1.40010358115936   -1.01576089540194    1.53160827736187
O           1.04994540254270    0.04855722010816    3.70863809338304
H           1.88746717313709    0.46173097822866    3.88628950019322
H           1.63746785391694   -1.26677712694590    0.00581837690923
O           1.74052084913649   -1.40469215458984   -0.97863191275316
H           2.32109244856352   -2.16099070241355   -1.07313442591806
O          -0.73214461643097    1.59988148686303   -0.58134253693642
H          -0.73228579323980    1.41845022901468    0.38078946820428
O          -1.77088383079740   -1.63183608641776    1.19408778618290
H          -2.65050662268952   -1.45139265499155    1.53041366529211
H          -1.19793939579734   -0.90648318642684    1.54194729292352
O          -2.36834786456870    0.81591780035820   -2.80166016411839
H          -1.97107142881899    1.36935208774069   -2.11428463266725
H          -2.74044913231396    1.41458605202839   -3.44975844830538
O           1.87896829305868    1.45802973544138   -0.82136675323309
H           2.05252347551488    0.53872188333574   -1.06130122521704
H           0.22327887630841    1.75031844229739   -0.79396813981953
H           2.01689073736573    1.51247244156432    0.14676966501565
N          -0.90346364977583   -0.95963415169456   -1.23301206910762
H          -0.85177755245711    0.08593088282776   -1.01780955241235
H           0.07437610501034   -1.29665446170893   -1.33474329579221
H          -1.33998799446954   -1.40361700863908   -0.38961269508996
H          -1.46192981460154   -1.07004789421646   -2.07616228611246
