    26
        -50.46507297  Gyration_radius:  2.5541650828 Dipole_moment: 4.286
 S          -0.24816612880669    0.50077703691285    0.82823132539375
O           0.71896353642029   -0.23149226579499   -0.00093102952951
O          -1.61077809190917    0.23295159400892    0.39013112719827
O          -0.03906059389001    0.17687453815613    2.23449786855668
O           0.04351459983034    2.01138312031224    0.63967429075338
O          -0.68358552201057    1.99073829468308   -3.12718050399402
H          -0.50764513890995    2.65179220024278   -3.79830351349489
O           2.38190817844699   -2.08182813197798    0.88047596377012
H           1.83601066192217   -1.38741751699941    0.44291054588844
H           3.17281421162265   -1.63682360576006    1.18859776737725
O          -1.35269245968645   -2.33253400492940   -0.01476655260162
H          -0.72737323042322   -2.33157058001702   -0.74460973824475
H          -0.55200458246641   -2.55919802500548    1.36247727451189
H          -1.60504159485897   -1.38436016387469    0.09813693253715
O           1.57334566276077    1.57640060138583   -1.74186536049060
H           1.62223488891383    2.32440585831209   -1.14031596496152
H           1.31646319808836    0.82025231678152   -1.17403420198985
H           0.18514129344212    1.77117839054103   -2.71860554708043
O          -1.93870334889027    2.57513986241813   -0.83233675501994
H          -2.28868470737128    1.72140418899903   -0.53144276722254
H          -0.72862872788467    2.37537684494892    0.08355333868443
H          -1.59624746249118    2.41329295252198   -1.74116063979430
N           0.09191644452125   -2.38743076832688    2.18911217801145
H          -0.14174006038591   -2.95277356058534    2.99737814401891
H           0.00507673058721   -1.33058553982602    2.37434747352826
H           1.07296224345288   -2.52595365714091    1.85602835416830
