    26
        -50.46794329  Gyration_radius:  2.46412194033 Dipole_moment: 2.596
 S           0.48053980712898   -0.69388620025363    1.63968904855071
O           1.66060924242220   -0.67250693134572    0.78529458570423
O          -0.70094603463405   -1.10280673359985    0.89569583529763
O           0.31219318282364    0.53979224844429    2.37253376337543
O           0.71078001180509   -1.83111597005418    2.71702399880598
H           1.28788403811217   -1.40989088894876    3.34565306164124
H          -1.07617014070860    1.25831646562143    1.66399411086275
O          -1.83916278310157    1.49803487849914    1.10353563291283
H          -2.31737024181250    0.67538622125931    0.97622321960056
O           2.26017836019956   -0.62804268525227   -1.83328039588155
H           2.20735046121178   -0.81745912232757   -0.87703642438689
O          -0.62835501569155    2.23098132738039   -1.18232838620607
H           0.26473167813252    2.32784166168959   -0.79335149020669
H          -1.22013363543727    2.16331770092529   -0.40275375447313
O          -2.28893953124661   -2.31179578570570   -1.06924097364854
H          -2.77490804034718   -3.11593508599298   -0.88356122693994
H          -1.84801352170734   -2.06101837468955   -0.24485038410191
O           1.63882169680456    1.94767530306022    0.27267832276124
H           2.70808823902399    0.21889621733633   -1.90077874856166
H           1.38932364114384    2.33536292949437    1.11556726745342
H           1.72657944896585    0.99433986349068    0.46347625326958
N          -0.39766403138588   -0.31508069411087   -1.66386897241456
H          -0.47554888721605   -0.64846985402259   -0.67667954108297
H          -1.08957792499012   -0.82618917980077   -2.20870766340244
H          -0.57273111007623    0.74518762645004   -1.63823515087672
H           0.58244106059307   -0.50093495758883   -1.97669199805226
