    26
        -50.46794311  Gyration_radius:  2.46410875391 Dipole_moment: 2.594
 S          -1.54971423312747   -0.37229084233707    0.92753550538915
O          -0.89082562517174   -1.63146190773870    0.60596589274574
O          -1.47049034254185    0.56238826118971   -0.18462523765834
O          -1.09883751131297    0.17654572415257    2.18567828241671
O          -3.09140699634422   -0.68871753679627    1.09936984053142
H          -3.13270761056774   -1.05799598566477    1.97541679609248
H          -0.20242492435803    1.56910291642423    1.73579381807122
O           0.28287594517918    2.27391470474701    1.26512702768693
H          -0.29632375315086    2.52978110081847    0.54351190265237
O           0.88116344683799   -2.59415218083582   -1.16971204586744
H           0.11512477669651   -2.44236796806317   -0.58392253398030
O           2.40827378180533    0.92909744968603    0.31462455024943
H           1.80818597861440    1.60083539677773    0.70333417753738
H           2.29911709069000    0.14934100988831    0.89635837905527
O          -1.23695565677141    1.52492807282434   -2.80510475746717
H          -2.00152905238648    1.85110088106701   -3.28074336403793
H          -1.54713827857937    1.28006535168487   -1.92150041879545
O           1.42810212035280   -1.09986593817940    1.81741239166126
H           1.15852942099782   -0.64592181241820    2.62010625705497
H           0.58767714296195   -1.36957992618767    1.40033230836180
H           1.60201508338212   -2.84450525703589   -0.58644271097717
N           0.80446094789689    0.06067110227382   -1.54036859520536
H           0.71517386510103    0.52988271528241   -2.43965800701961
H          -0.09257375985497    0.20880917439111   -1.02552188466649
H           0.94091669746139   -0.97166983853966   -1.63374101774472
H           1.57931144607236    0.47206530262321   -0.91922654616117
