    26
        -50.45993167  Gyration_radius:  2.42538555255 Dipole_moment: 7.473
 S          -0.85747856714118   -1.62222560831970    1.09294489650902
O           0.52280735961345   -1.39669514083757    1.58409759522637
O          -1.45949420899314   -2.81249225918890    1.58088572817389
O          -0.69990862166080   -1.72388739888380   -0.49219936141746
O          -1.64055108097613   -0.39946091128437    1.27260100219103
H          -2.03545056589724    0.46655699793005   -0.04365954412819
H           0.19721695262633   -2.11182411342160   -0.61338014151905
O           1.97964128581973    0.54302149192447   -1.36837633209280
H           2.56454329556271    0.93679508750751   -2.01668914133510
O          -2.23703598274905    1.13231204379706   -0.75106099469328
H          -3.12813631923458    0.93679235266341   -1.04414314442435
O           1.86652596607696   -2.19440624966437   -0.54656108792484
H           2.12979566828331   -1.32437120438381   -0.88403968020482
H           1.70907082774481   -2.07847227394216    0.40689689333992
O          -1.11131640431090    2.20003824862936    1.61578461636995
H          -1.54113511038378    2.43717978133519    0.78438244511889
H          -1.45457103772046    1.30517205591560    1.80835632282354
O          -0.36343497018923    0.21943890014673   -2.44647892343169
H          -1.02534147484418    0.73627392982939   -1.94060773385064
H           1.09143824370093    0.44239717176616   -1.82375065703724
H          -0.54323468963490   -0.69318090113466   -2.18450377816142
N           1.22542328439237    1.02625221985357    1.20032674248454
H           1.56479292964860    1.02654165880837    0.21966388237880
H           1.96080369018519    1.31456870503784    1.83680152947986
H           0.36488236030276    1.63102096427736    1.32615334299465
H           0.92014717977223    0.00265447164142    1.42655553312455
