    26
        -50.47455459  Gyration_radius:  2.42596977575 Dipole_moment: 3.603
 S          -1.26279813423684    0.87252078120490   -0.01620373335840
O          -0.13207177293380    1.26530209948463   -0.86438514699812
O          -0.87071971410999    0.77053273054687    1.37635814880593
O          -1.86237746603555   -0.35324284374797   -0.52612238204743
O          -2.32261787472792    2.01346197002037   -0.09696150805859
H          -2.57811314461629    2.01200824716025   -1.04041065807257
H          -1.55467891154571   -1.54724803971361    0.67148213884728
O          -1.24483505883702   -2.05405131471477    1.44722878223258
H          -1.39467651966993   -1.46321587217585    2.18910315548266
O           2.47911950046782    1.48859927455826   -0.40848113331584
H           1.53045542487036    1.60066503332257   -0.62822101139532
O           1.37855945236628   -2.20256442903926    0.93624463121006
H           1.32329603055082   -1.98447558669137   -0.01706840020110
H           0.44278015309970   -2.35486722988934    1.20020542066537
O          -2.34515406653663    1.23824979146759   -2.62259471827654
H          -1.41826987860430    1.45337381378451   -2.76688386154189
H          -2.34538088556561    0.40343973609867   -2.12545946406912
O           0.74020905089714   -1.18457482817850   -1.48586804474162
H           0.44235834080745   -0.27170308707754   -1.30370311219357
H           2.82726181052016    0.89416147476780   -1.07789547686764
H          -0.06588483087784   -1.67135986464431   -1.67588615119006
N           1.66973219525146    0.22399061682412    1.79666582864207
H           2.17543647534741    0.75352891251247    1.04382366519917
H           1.66767502340810   -0.82752640485216    1.53731601671153
H           2.06090762227242    0.40020809755537    2.71484050516355
H           0.65978716853070    0.52478692138416    1.74287650938053
