    26
        -50.45993166  Gyration_radius:  2.42538359791 Dipole_moment: 7.475
 S           1.41513739304455   -1.44121526419606    0.69424144773237
O           2.52590859874324   -2.19545505154925    1.15745088371537
O           0.87674709148147   -1.89537729816163   -0.61009652317357
O           1.87539278823802    0.06382215192232    0.42804987149538
O           0.31418677556854   -1.28982987132184    1.64589084660597
H          -0.13802970322700    0.21024481344968    2.07394248313542
H           2.14497531003364    0.06151918000444   -0.51921579556216
O          -0.47802333062755    1.41007191629750   -1.96719562738429
H          -0.78341663383560    2.12110426770903   -2.53164918240842
O          -0.57447521811514    1.06637806940771    2.32060269699088
H          -0.18461907487124    1.32419594426706    3.15707807515643
O           1.96285006593914   -0.06614492726053   -2.17701586258512
H           1.64277982879364   -0.95620170038733   -1.94735133771097
H           1.17215009729297    0.47105839207159   -2.33954161795768
O          -2.33929194990161   -0.98681238406181    1.49577159066540
H          -1.47761084982500   -1.38753331776985    1.72538544297352
H          -2.30185936045516   -0.11211929785365    1.90273509917981
O           0.43813535655426    2.43211744491434    0.24036826086997
H           1.27596016939432    1.95569223830509    0.31001675162822
H          -0.14064613208716    1.84818301460291   -1.13021430080600
H          -0.08318609426102    2.08792437423847    0.99596809413386
N          -1.45587459557289   -0.93673650924156   -0.99966196816672
H          -1.94005434850536   -0.88575601884194   -0.05884169774656
H          -1.26721952754859    0.00403779618011   -1.39494227657049
H          -0.48484049854651   -1.40354146768246   -0.82293657093517
H          -1.99507614768792   -1.49962651503975   -1.64883877329191
