    26
        -50.45993164  Gyration_radius:  2.42535130354 Dipole_moment: 7.473
 S          -1.69413540288431    0.26072595655475    1.27403679082803
O          -2.01338184453350    0.82261652811099   -0.06003447791366
O          -2.65176398541233    0.56787250153584    2.27695642647273
O          -0.29657655866612    0.92892602629839    1.65886678409849
O          -1.35888779540768   -1.15659029655900    1.13449217936680
H           0.19025882144409   -1.60670334284443    1.32132370547470
H          -0.33024098494250    1.80995707264577    1.21989096313118
O           1.51370214457565    1.29984601412770   -1.45109757852837
H           2.28044945117442    1.59552161681623   -1.94319457470033
O           1.10787361930268   -1.98333035580891    1.30002406901504
H           1.27132454701944   -2.31723869287142    2.18315886057395
O          -0.56130562960654   -2.76605133784756   -0.84757504251188
H           0.28255407874025   -2.94608114545529   -0.41430325166327
H          -1.12081334858039   -2.41134801463193   -0.12868714248932
O          -0.38831442769923    2.90581674129884   -0.04236424992119
H          -1.20728276707088    2.42536473304824   -0.25643190992248
H           0.29041157176430    2.56322569296648   -0.64414748904616
O           2.30220548698421    0.38049780167465    0.84895356787573
H           1.86425582027170    0.95031058032249   -0.57859796049062
H           1.67674092062814    0.83048232466434    1.43209924176015
H           2.04597625938514   -0.56284889409419    0.92438519732688
N          -0.62778837948199   -0.32454023721480   -1.86998140737625
H          -1.06671673772526   -0.26167551480964   -2.78233441845539
H          -0.50590279954684   -1.33713278860954   -1.58371412521905
H           0.26879443367981    0.19774701606560   -1.85473400290746
H          -1.27143650340844    0.13463001457140   -1.11699016477574
