    26
        -50.47163771  Gyration_radius:  2.37112571151 Dipole_moment: 7.009
 S           0.23567000104228   -0.74410596191369   -1.32552595468119
O          -1.08277415996380   -0.86261359818086   -1.93127372004542
O           0.22368823506950   -1.25493037210600    0.04917582237427
O           0.68431681452982    0.65228987502925   -1.32762526088823
O           1.22486279221776   -1.58231558724414   -2.14676906758043
H           1.99229964869698   -1.73377390990744   -1.51294107618975
H          -0.30307282314746    1.73002268386498   -0.71332173244010
O          -1.77254285367248   -1.08874096388612    1.85084884369610
H          -1.10374963129526   -1.49794600956018    1.26977718903418
O          -0.95383895839924    2.32284800207452   -0.24469137091581
H          -0.89180330659843    3.17540748595456   -0.67791633072538
O           2.80277923571065    0.78432670013808    0.30898784552709
H           2.12834243357583    0.87766877353055   -0.39086119372357
H           2.32403501072997    0.90623378564176    1.13983840226430
O           2.90660513465307   -1.81734447978227   -0.23175192965912
H           2.19707826560968   -2.06723801034767    0.37110418802506
H           3.10616707410988   -0.87390052829250   -0.01770098761326
O           0.34331984618534    0.76760544739684    1.82400070533080
H          -1.25935895740818   -0.45869486685414    2.37924827280915
H           0.39507437307916    0.04948831566434    1.16302261898534
H          -0.03457014297043    1.52348001003336    1.35996450987748
N          -2.66941263918055    0.24926081604405   -0.23503889238398
H          -2.11400879621322   -0.26594654646496   -1.00217239605888
H          -3.65968833327729    0.28420357078050   -0.45127270974652
H          -2.47394890878423   -0.27322166762143    0.67321019796459
H          -2.24546936432704    1.19793705605348   -0.18031597331483
