    26
        -50.47163765  Gyration_radius:  2.37117987503 Dipole_moment: 7.010
 S           0.46113016504822    0.54669186399929    1.36183488737902
O           1.89683296229852    0.74298274828146    1.22258648382449
O           0.08336462543077   -0.81703289990704    0.97646251343111
O          -0.27682415430667    1.51229790302403    0.54068075777570
O           0.08193059595636    0.75831784949627    2.83402255239548
H          -0.80531871251822    0.29057102844534    2.92096011598108
H           0.12158735275313    1.61214213273502   -0.99112852802288
O           0.38846114582600    1.55384648219053   -1.95016852991337
H           0.29080904316442    2.43895264860340   -2.30435746294596
O           1.16060623821552   -2.33814002518104   -0.96876141731051
H           0.87634109188358   -2.07377036752221   -0.07333610262199
O          -2.08134797345036   -0.59944126669760    2.66666999960477
H          -1.60849053929785   -1.31020531673419    2.21878943834948
H          -2.56767897671853   -0.12270391258658    1.95130820916981
O          -2.81697165908404    0.66232746186755    0.44398411425886
H          -2.72692090746210    0.05159948034188   -0.29979085405055
H          -1.97435430795308    1.15472040475777    0.47442457637456
O          -1.17084745323179   -0.82505935908379   -1.40742898812283
H          -0.79899121253369   -0.78566423858027   -0.50442968823377
H          -0.84156518640135   -0.04026520437378   -1.86028892952347
H           0.35205675247754   -2.25525355604910   -1.49707205849471
N           2.42022172306795   -0.03260999571108   -1.17660412154423
H           2.33190435009119    0.28727843377900   -0.15085028506769
H           2.03195196504503   -1.02473544107825   -1.21169656516158
H           1.79201745814428    0.59831620633404   -1.71514878256302
H           3.38009560353639    0.01483695961723   -1.50066134493637
