    26
        -50.46163599  Gyration_radius:  2.55624248977 Dipole_moment: 2.237
 S           2.05786273019049   -0.09976382314264   -1.08426643621515
O           1.95874927721846    0.90553057841147   -0.05196020687979
O           0.88205436666846   -0.06468722479862   -1.95265074976851
O           2.34592406269059   -1.44003034688079   -0.60892574907398
O           3.30088406849489    0.29969513919212   -1.99387473607864
H           3.54152666190181   -0.53539176709457   -2.38232543465289
H           1.09744785232598   -1.92896737443217    0.26559087495927
O           0.36187617530916   -2.18466065786112    0.87930412973584
H           0.46444093157910   -3.12458361829332    1.03770582338231
O          -0.99598302336527    1.40340983789488    1.77831060250529
H          -1.06197990355916    2.14592344298335    2.37924790786281
O          -2.13305195557917   -0.98922327423936    0.79529282007246
H          -1.94233782636081   -0.19069858447198    1.30623653104945
H          -1.29493344805831   -1.48188998252098    0.76691180194579
O          -2.82483386830170    0.00033276376166   -1.55288775726012
H          -2.72391731076483   -0.45784914347218   -0.67973987574731
H          -2.45596607550991   -0.59867147647902   -2.20553002403742
O           1.13704551517644    0.05301188883644    2.30961741180097
H           1.62496613259972    0.39851193679818    1.53239099317617
H          -0.17133785987453    0.89486518162513    2.05625033310189
H           0.89259553780258   -0.85278256048719    2.06025902251300
N          -0.81301740497773    1.59900916383309   -0.92805976904820
H          -0.03417387809198    0.97625625805848   -1.31736562431475
H          -0.72124806176996    2.54092496761946   -1.29092972178797
H          -1.71366257520726    1.13305630529900   -1.23537467316452
H          -0.77893013052964    1.59867233985353    0.11677252592204
