    26
        -50.46282785  Gyration_radius:  2.48657400942 Dipole_moment: 6.973
 S          -0.87241485360291    1.05222368497510    1.59643872329582
O          -2.13566677196440    0.32442188189307    1.55419568183811
O          -0.69802993675869    1.99689221926870    0.52730185500699
O           0.24894869539724    0.11494354149253    1.70758524144990
O          -0.89655228047386    1.87666765403239    2.94630748623306
H          -1.32289849433897    1.28280393434289    3.55579590901653
H           0.13909493073091   -1.33497981978683    1.05369308010855
O           0.04170937600416   -2.21051441725009    0.59284948678474
H           0.06033709859050   -2.87912969071312    1.27906960861924
O          -0.95923231394626    1.02841914992051   -1.96725763153867
H          -0.90815350267003    1.59381933687601   -1.17249333190001
O           2.34022937783357   -1.77407365164072   -0.91091498423181
H           2.85853290547277   -1.23775550477060   -0.30563029986472
H           1.53831439679740   -2.03105349547218   -0.42803923373446
O           2.04586460846588    1.53096808779143    0.28415629148370
H           1.49185627017260    0.96184954589118    0.84795961827480
H           1.55961674714758    2.35905588157844    0.24133002256815
O           1.58935272589158    0.51708870125833   -2.21003964401404
H          -0.00790219146159    0.83747481006189   -2.20208805210148
H           1.88423509841741    0.99299443522161   -1.40830910544510
H           1.84503992871957   -0.40674966134947   -2.04334552276162
N          -1.98793065102605   -0.94931844888749   -0.72287948454991
H          -2.81237592319929   -1.37163059149690   -1.13530275731990
H          -2.21280167251015   -0.45711866089119    0.18715892181265
H          -1.27127180065857   -1.65562644849729   -0.49448681426336
H          -1.55790175700312   -0.16167246381766   -1.37305507476587
