    26
        -50.46116954  Gyration_radius:  2.61865256179 Dipole_moment: 2.806
 S          -1.78239919483497    0.77043928971474    1.36873049814166
O          -2.58049509903268   -0.39929491946538    1.11164919800102
O          -1.87822280530638    1.80488747315938    0.34634755960590
O          -0.38108937732955    0.42326854866741    1.62614459916326
O          -2.33118769739892    1.44391797653591    2.69650561326470
H          -2.15879505120522    2.36747079945572    2.54150777769667
H          -0.15993077630966   -1.17659387975819    1.43921903035515
O           1.79797231847391    0.74758640836761    0.07175604372813
H           1.16745885923718    0.78521563355892    0.81500670741426
O          -0.00313090543427   -2.13602459790763    1.24790028368243
H          -0.47361350385243   -2.61232005583839    1.93360732123433
O          -1.55188824533723   -1.68631776795452   -0.97287498367990
H          -2.17319622755714   -1.28543156946789   -0.33036687959314
H          -0.91183638556791   -2.13423393152088   -0.39459188665495
O           1.83834240947654    1.98428098693278   -2.51125543378701
H           2.49312831496662    2.61401243559873   -2.81417770251950
H           2.08485582866216    1.74426767010076   -1.60719833240464
O           2.52187846821314   -1.84981582681943    0.27154978478678
H           1.68703830435403   -2.07577954737524    0.72202312204131
H           2.57231969752943   -2.40700748570887   -0.50656419130688
H           2.22991737399518   -0.12792745896783    0.15049663444844
N          -0.40459911741944    0.63906039289111   -1.47283714390450
H          -0.83271510884493   -0.32809639011667   -1.49000607579574
H          -1.03770689689548    1.23785871297336   -0.87609389090190
H           0.52042275795673    0.61380002053513   -0.97211417260186
H          -0.25252796052917    1.04277711247324   -2.39436349039201
