    26
        -50.46282800  Gyration_radius:  2.48654192589 Dipole_moment: 6.990
 S          -0.85761604332321    1.90185856852863   -0.24632143879785
O           0.51843863000970    2.11568167193939    0.11011749630804
O          -1.76112156533980    1.78401606969232    0.89268661185937
O          -1.03263429039456    0.76386047304053   -1.15297334169936
O          -1.33762376074210    3.18209715050487   -1.04211536206357
H          -2.28378486101992    3.15573570489137   -0.94237824355961
H          -1.46733817402691   -0.65646182174597   -0.57399114307245
O          -1.69551970756548   -1.53202610123651   -0.16198277518598
H          -2.56229511719891   -1.76826590271661   -0.49537650292678
O           1.60021257350304    0.31027278126802    1.78290354517686
H           1.39243471334003    1.10430940310468    1.25343410856001
O           0.54309823176221   -2.73893751939637   -1.28810027473253
H           0.63822099570132   -2.23252823282336   -2.09871971427372
H          -0.26952729223970   -2.42113377277573   -0.86278213758964
O           1.52046212982952    0.57578602700078   -1.99449342245481
H           1.83865430579183    1.41046621951820   -1.63958756519198
H           0.56762456564756    0.58278413485910   -1.79294544309192
O           2.49792709691003   -1.19046178688252   -0.15554359192803
H           2.33156021908710   -0.55891787794257   -0.88334714128209
H           2.03654238349358   -0.31493235296262    1.13845424404245
H           1.94218047876275   -1.95764957538224   -0.37741200301731
N          -0.84697184894843   -0.32686988332344    2.13330605584389
H          -1.13375512479448   -1.06882226645737    1.47612592496322
H          -1.13470939497497   -0.53540786869073    3.08297023393502
H           0.24488398283797   -0.15086370144053    2.06146328144877
H          -1.28934313611143    0.56641045944752    1.77660862873707
