    26
        -50.46163607  Gyration_radius:  2.5563268122 Dipole_moment: 2.231
 S          -2.05071560705592   -0.75510548720857    0.80231655314866
O          -1.57709791423801   -1.39081763009758   -0.42625410574645
O          -1.91770975067670    0.68050336878236    0.71658422693087
O          -1.46743133084999   -1.35491698702334    1.98770513617303
O          -3.60837871905844   -1.06545299261952    0.89763637587158
H          -3.61699278150326   -1.91969610582651    1.31761336543514
H           0.11608075746874   -1.12941345824539    1.92538231430598
O           1.00273492687142    2.20766814841598   -0.49242821146954
H           1.01884120612627    3.15408551374446   -0.63685147090644
O           1.08174367754523   -0.90444821657418    1.92207418289995
H           1.48284996910829   -1.45114286287691    2.59978857662030
O           2.44026146066139   -0.22272758840013   -0.39090568526497
H           1.99651081676591   -0.55632262964221    0.40770579371002
H           2.19200076067037    0.71000626667174   -0.44968937527377
O           1.43172523468851   -1.21188612018309   -2.62186877750233
H           1.09700279082401   -2.08138418822188   -2.39222449882317
H           1.96566385380236   -0.91436919004825   -1.84164577391389
O           0.19921736970483    1.71731257212685    1.90963190730108
H           0.72059394373371    2.07886564572631    0.46661557948073
H          -0.69260610673817    1.43087879785750    1.61975589063160
H           0.65940853781834    0.89184339004090    2.13159406624211
N          -0.50539389018278    0.44015286402308   -1.90602457657396
H           0.24122755429719   -0.14257043864576   -2.38109796021076
H          -1.02021401649431   -0.24344705222071   -1.26281473286624
H          -0.03603527557699    1.17960477944801   -1.33531687649263
H          -1.15328747769876    0.85277961099464   -2.56728192370253
