    26
        -50.44835260  Gyration_radius:  2.39519645021 Dipole_moment: 3.303
 S          -1.92668097208559    0.11166782138906   -0.46804376537282
O          -0.82915296869592    1.03030970614377   -0.20427704367954
O          -2.78253535675306   -0.16032379805234    0.64269166782953
O          -1.42871615517752   -1.10532904503279   -1.12378757193043
O          -2.80015872955262    0.86020080845627   -1.56989489339075
H          -3.66996303901812    0.48483488698771   -1.47280864056387
H          -0.14134678297249   -1.09605558003828   -1.70531564189801
O          -0.35115983882834    1.42797313605298    2.49912469753923
H          -0.81877526042761    1.43373001953330    1.65113752989876
O           1.92042962386815   -1.51354991711363    0.26823788076485
H           2.28419708420573   -2.39417048936872    0.36845076013368
O           0.87434389711655   -1.00564822786273   -2.00113554910612
H           1.38609475809455   -1.22580261046563   -1.13639567630775
H           0.98965345516633    0.02237830373354   -2.17834575545706
O           0.95504273659640    1.50774131140416   -2.14261670262086
H           1.61512603660247    1.71439672115838   -1.45178725507283
H           0.10307277603752    1.59419344688369   -1.67349420343874
O           1.90940899903925    1.31522489590905    0.36835052108723
H           0.43023710008883    1.97533240978036    2.38242271315682
H           2.25307986199552    0.42626748932733    0.51275758669381
H           0.94458838457500    1.22604607331534    0.39571577262259
N          -0.24960661353102   -1.34294043968489    1.66012525606979
H           1.06623237064356   -1.47463090827268    0.85122146914495
H          -1.02513253152725   -1.20161043602071    1.01885124686744
H          -0.49897873008632   -2.11042811603850    2.27266082935204
H          -0.20930008536368   -0.49980747209069    2.23615477757040
