    26
        -50.46166089  Gyration_radius:  2.56674436981 Dipole_moment: 2.818
 S          -2.09189117720060   -0.62778254682806    0.73376865581346
O          -1.92037388954131   -1.15851475185847   -0.61359885560326
O          -1.55820062146287    0.72948054579238    0.83651729270638
O          -1.63142786975385   -1.49488623253828    1.78781600209498
O          -3.66724180128382   -0.48964415928140    0.92160147222098
H          -3.78867917053988   -0.50113007634331    1.86652342648735
H          -0.51328361343721   -2.59956434728907    1.02840790925141
O           1.89135239360614    2.69484390780649   -0.05873673078690
H           2.65593558773177    3.13567292997090    0.31236752121367
O           1.95367438348254   -1.22809571195993    0.12619654147075
H           2.75096400199746   -1.70949053487868    0.35157506953959
O          -0.04644407888459   -2.91073829887099    0.22858080201941
H           1.21599123717499   -1.89836860442488    0.13926524567508
H          -0.65250660723056   -2.64460310515017   -0.47592551673933
O           1.74517204981079    0.69438125406603   -1.80109872498778
H           1.91001148718741   -0.05636635877501   -1.19888233143101
H           1.96063638378385    1.49746429478203   -1.27468967886160
O           1.00533142592488    0.89730192517359    1.66244187609516
H           1.53178464764765    2.11603892709154    0.66246638786999
H           0.04110066903253    0.84289580226544    1.53865933919968
H           1.36786238524344    0.08922406853732    1.26343958336017
N          -0.83360666985310    0.94723896476858   -1.64374200375305
H           0.23724667726746    0.84266536601177   -1.79934086497866
H          -1.28826881533587    0.00270824786989   -1.57898661051138
H          -1.01249607841870    1.28627118043801   -0.67168128808627
H          -1.26264293695231    1.54299730360757   -2.34294453926155
