    26
        -50.46071440  Gyration_radius:  2.58335974291 Dipole_moment: 4.702
 S          -1.28046086194607   -0.78431495564896   -0.69573892867057
O          -1.22702671144533   -1.41157723271042    0.62145437534478
O           0.03358609655484   -0.74437650618271   -1.33139366754170
O          -1.86120150453023    0.54792661829298   -0.63209603831150
O          -2.17750864106558   -1.67090077173463   -1.61196396229135
H          -2.95164875700371   -1.86025800545547   -1.04430772072693
H          -1.13385600924665    1.77773393394604   -0.01165841861248
O           2.72473951225315    0.27470278563289    1.18167510767282
H           3.28399938958397    0.62965481174631    1.87351144375768
O          -0.57891915478743    2.51494948444672    0.37714393494738
H          -1.15818231805330    3.27658250944374    0.42711487090685
O           2.83745700727432   -1.07583982635063   -1.44382813398954
H           2.99504547868160   -1.06339765102287   -0.49485140722878
H           1.90156466355102   -1.28555040213826   -1.55168436327590
O          -3.72626490135922   -2.15796168256811    0.47167569989929
H          -2.85337078717133   -1.86857068181556    0.81041911207708
H          -3.82237188106120   -3.07944292799312    0.72308531842255
O           0.24589261728240    0.31255703270688    2.01047183473819
H          -0.29235937698551   -0.38915108253932    1.58966117713311
H           1.81762764230293    0.17259302017022    1.57873071297759
H          -0.11362743410943    1.15062048069259    1.69030349215461
N           1.48252056622974    1.38005890716006   -0.92034225482672
H           2.15069499735048    1.03750873679426   -0.18719455012168
H           0.88690870315842    0.52621327654006   -1.17570132420255
H           0.83614059753825    2.08231638995044   -0.51353208213595
H           1.98062108691501    1.70792374867953   -1.74095422803660
