    26
        -50.44689599  Gyration_radius:  2.49197049056 Dipole_moment: 6.882
 S          -1.60800813327699    0.14645052240416    1.79581093121874
O          -1.31103831424636   -0.91888872514398    0.85537265227311
O          -2.94759812814019    0.22763252401915    2.24394252817748
O          -1.18016185295579    1.48501004275871    1.10274821823247
O          -0.61844474693681    0.08652729856292    2.96346806524588
H           0.13807734366460   -0.55297509207268    2.71951749405245
H          -1.70795128167953    1.47237563739288    0.24062595526507
O          -0.08647000174349    0.90447457498740   -2.51851047972024
H           0.05847822697054    0.94242493725150   -3.46428240814210
O           2.59543809410034   -0.34802593873939    0.29978961068289
H           3.46949089919202   -0.09991534866408    0.60409525329069
O           1.02399167200449   -1.60766771373248    2.05592159786726
H           1.67356321196769   -1.16740026392665    1.45815836130687
H           0.28868655211292   -1.88277880240610    1.49175738219482
O          -2.35675015806593    0.94842603287508   -1.07797984425613
H          -1.61079574496793    1.00211967078307   -1.71583279492039
H          -2.43332550745845    0.02470981418399   -0.81635478667348
O           1.23790656438646    1.84286567150170   -0.26059960258892
H           0.49980969935074    1.90673879797594    0.36149700157718
H           2.12454817079493    0.50084757605416    0.09043675632326
H           0.83308677566276    1.69459868770676   -1.13140948774113
N           0.40229850806583   -1.44398135718310   -1.45327134512903
H          -0.26219347967362   -1.39626568578453   -0.68304262609990
H           1.33246907192387   -1.39307070179604   -1.05038295162154
H           0.30124271951358   -2.34602658405511   -1.89999995021161
H           0.14364984951654   -0.02820557489481   -2.21147553058148
