    26
        -50.46166063  Gyration_radius:  2.56699806384 Dipole_moment: 2.797
 S           0.59578947528603    1.54483754219472   -1.60389732315795
O           1.75036215538847    1.34518309670874   -0.73566812290776
O          -0.64179833184867    1.60247697498799   -0.82759695564134
O           0.51696159208661    0.64008241672452   -2.72200148831235
O           0.79128876540727    3.00084613098646   -2.21779833858985
H           0.28120950006361    2.98185887624653   -3.02228580841288
H           1.51696843670491   -0.72501511319608   -2.29048554728202
O          -2.52280741439746   -0.60739918931978    2.02939996807925
H          -3.27727151547505   -1.16860534847099    2.20945189170896
O           0.35289773997223   -2.28357082193437   -0.05588383554139
H           0.37911482922487   -3.22905641070524   -0.20938272205897
O           2.10362887300895   -1.17045067531940   -1.64872159993164
H           1.05153021164553   -1.89015668585223   -0.64817755438235
H           2.47109951390000   -0.42301139858158   -1.15789656698566
O           0.07128768190288   -1.06796115084761    2.37221011468143
H          -0.90921934294295   -1.00250259347150    2.42550621236823
H           0.24772530891024   -1.59952503246815    1.57233551041343
O          -1.92736885936770   -0.75304762724409   -0.54013248206005
H          -1.16946845149037   -1.35956896823961   -0.50322581074173
H          -2.41001948062682   -0.60792737298383    1.04354112556198
H          -1.56050391268743    0.11264481070635   -0.79305265589515
N           0.46206501681401    1.34725702870163    1.50462545651198
H           1.26621298859641    1.36625616593274    0.82957689442428
H           0.35225264704901    0.35568298462333    1.93662241241997
H           0.52969012898834    2.06598160807253    2.21649799425786
H          -0.32162754611764    1.52469077274523    0.83643922147088
