    26
        -50.46071438  Gyration_radius:  2.58338537874 Dipole_moment: 4.700
 S           0.75948809846227    1.44069420075376    0.29437826142420
O           0.20288790064708    1.66347353891996   -1.03675762994557
O           1.46821326398437    0.16683363528243    0.37981115048835
O          -0.26313191858720    1.52995736732950    1.32508970604540
O           1.82516687122509    2.54727343060260    0.55885562320086
H           1.37212349533470    3.36313653344003    0.26460814461132
H          -1.36681378159319    0.45211053517807    1.54050512380051
O          -2.01680701269561   -0.30488740381041    1.62489904321633
H          -2.66250213278580   -0.02086154370232    2.27340102570961
O          -0.49645328137046   -2.59922662542120   -1.37636719593360
H          -1.12200889197798   -3.21607588193360   -1.75795610780361
O           0.28944084437087    4.25783615077898   -0.74217768126820
H           0.02935306001537    3.35422926173953   -1.01844853360174
H           0.67879030249615    4.67538391066194   -1.51396911439901
O           2.33234020208400   -2.35450346625461   -0.55849307238640
H           1.65727154967758   -2.46564346715660   -1.23482805435338
H           2.35774557121209   -1.40910533654472   -0.36588012950879
O          -1.63403348823852   -0.25147665737723   -1.21158982739695
H          -0.90697543924943   -1.69610422751729   -1.45861320370134
H          -2.01094987462262   -0.21650415490958   -0.32227098863728
H          -0.98053412707108    0.47665572382640   -1.25536681764081
N           0.08852228602753   -1.90481564988492    1.14531356018123
H           0.58281594292046   -2.52034141876197    1.78234811702415
H          -0.79493304221991   -1.52253315202844    1.53230949536417
H           0.70679424230500   -1.06353442778937    0.90222381690302
H          -0.09581062034597   -2.38197089543372    0.22897528857047
