    26
        -50.46507284  Gyration_radius:  2.55365063796 Dipole_moment: 4.279
 S           0.37242292274323    0.91941380636992    0.13848819401079
O          -0.29683210637919    2.21189431021256    0.22658808169474
O           1.65409085660181    1.10473178916010   -0.71323109000726
O           0.75377641230709    0.39755245031288    1.44335804615140
O          -0.48446850771202   -0.03761203266494   -0.57500301511573
O           2.70262220707842   -2.57996147977958   -0.47168004969778
H           3.36655940375839   -3.07364015926760   -0.95518412980914
O          -2.97626429981203    0.41534224343128   -1.31787413444114
H          -2.94903133830630    0.84113351253156   -2.17607381430423
H          -2.04898880665522    0.14326117084319   -1.12342120752682
O           1.16966578671068   -1.27173845138744   -2.23893113606514
H           0.47256608374313   -0.90746705441547   -1.65443580034598
H           1.69628935609422   -0.50844198025562   -2.49161769268928
H           2.08512476456161   -2.21159046596023   -1.14454024060737
O          -1.56130240596527   -0.60339085549472    2.11389363788968
H          -2.36689821083615    0.69807918244146    1.61764870040767
H          -1.64888287032631   -1.29725726174586    1.45473959820603
H          -0.63685957464184   -0.27273553451186    2.00626186118758
O           3.23732703963186   -0.24502049480066    0.73072511225248
H           2.39675112883018    0.62948485897927   -0.20260507577423
H           2.54520828779221   -0.16383303344255    1.40620776119968
H           3.14796613042269   -1.15710088078682    0.37089270930114
N          -2.63782624374637    1.55687983155806    1.05506967580306
H          -1.69554160367024    1.98764037940700    0.76317856574415
H          -3.22509034827661    2.20059347898314    1.57292856842583
H          -3.07238407394027    1.22378268023525    0.16461688409061
