    26
        -50.44689610  Gyration_radius:  2.49173551721 Dipole_moment: 6.879
 S          -0.74177261228373   -0.11324688427043    2.29435706964198
O          -0.65730433940135    0.32282039758562    3.63775496128388
O           0.50909884589018   -0.49939376058036    1.66679593506161
O          -1.36576826262689    1.00662011117636    1.39350810358014
O          -1.76671833404182   -1.23847124877104    2.12291717112662
H          -1.40598228320741   -1.91032554865531    1.44501741713444
H          -0.63451978543144    1.70385426331209    1.35998170496219
O          -0.78038110513059   -1.60857229279145   -1.93781435630137
H          -1.42876868366540   -2.00041540592106   -2.52450582092662
O           1.01595113511697    2.02790446251865   -1.42153557238096
H           1.55083089949067    2.49447405813351   -2.06430837371009
O          -0.52861830292167   -2.71090299762579    0.48284637627553
H           0.26097642012167   -2.26339418920104    0.81584733564706
H          -0.65878781474409   -2.38052682936332   -0.43757322846550
O           0.78586660576596    2.33875406613039    1.23976145507708
H           1.28421284109921    1.58042177252793    1.56250475594242
H           0.91966878959781    2.37287695560172    0.26652052127554
O          -1.51122564508301    0.86732902843645   -1.39739163886556
H          -1.08614548408654   -0.67879861519603   -1.76971596175418
H          -1.71897344440275    0.92120089867907   -0.45404796241640
H          -0.71946880768474    1.41665841829186   -1.52171537709799
N           1.81079890628347   -0.42854154737573   -0.94887682677049
H           1.39465944076508    1.09798350635140   -1.32685711349652
H           1.49506987035338   -0.49984365534096    0.01667291920687
H           1.21901686307557   -1.03856941629453   -1.50366079369723
H           2.75828428724887   -0.77989553751235   -0.99648269051575
