    26
        -50.44689607  Gyration_radius:  2.49186769372 Dipole_moment: 6.882
 S           1.92900091855588    0.40039008357755    1.39572115071853
O           0.93525095907289    1.30450892863267    0.84554206431318
O           3.22623337559787    0.93530457776260    1.57808584357185
O           1.97792089211327   -0.84206837134271    0.44234551213656
O           1.38677316957314   -0.23214338212892    2.68103989392380
H           0.38909400124040   -0.03022812615544    2.75043758842167
H           2.18044775549318   -0.42893495780467   -0.45779696687782
O          -0.21815280022331   -0.32637790742203   -2.64857354705554
H          -0.58644980733721   -0.28189762693171   -3.53136234266044
O          -2.27519442334465   -1.05814355500692    0.80826810722572
H          -2.81942528178436   -1.75719328120093    1.17333310437262
O          -1.02193212286155    0.52554469687063    2.55770954438560
H          -0.67935569632420    1.21868950943589    1.97735425970843
H          -1.54080729797329   -0.08078365913425    1.97778837608745
O           2.12735252781209    0.55224209906255   -1.66983878818947
H           1.84762311268411    1.33309960547329   -1.18031975812362
H           1.34171949013778    0.23163815488984   -2.16605295743938
O          -0.29169668454203   -2.14668615307462   -0.54736041157408
H          -0.25719461607457   -1.67973682406891   -1.39876821863498
H           0.53628221512966   -1.92775665822501   -0.09743773463101
H          -1.55122707660025   -1.50884977843207    0.29942681221266
N          -1.39681842429093    1.25334704253966   -0.91521711727171
H          -1.84189934548903    2.14117875500549   -1.10790610950577
H          -2.05095371122128    0.67820930641350   -0.39420519711502
H          -0.74895031405022    0.30123886729776   -2.06428288330541
H          -0.59764078528365    1.42540863392862   -0.30793021478084
