    26
        -50.46862454  Gyration_radius:  2.56419610102 Dipole_moment: 2.419
 S           1.37368658824862    0.57296706240472   -1.50770514084552
O           0.24247558761749   -0.33370529550178   -1.73172617552751
O           2.33267773791571    0.02721448553582   -0.58290995832748
O           0.91639074837718    1.90910768004749   -1.16078827151652
O           2.11277814552833    0.70147628416495   -2.90341865501511
H           1.51096442356258    1.19337841856742   -3.45502555551004
H           0.69619869053436    1.64419456929266    0.44790261128386
O          -2.62579678126491   -1.48307204367960    1.48045125632086
H          -3.32566899966069   -1.72464988343223    0.87221035124147
O           0.58059626915343    1.32623673113107    1.37382852166194
H           1.45283340171956    1.38239065175041    1.76965325790699
O          -1.77186673093589    1.40431968019789   -1.36221656119844
H          -1.14044929995108    2.13236388373941   -1.32268225570943
H          -1.21777608581211    0.64091569970286   -1.60357809921216
O           2.40764369573549   -2.27022574040351    0.78296374575514
H           2.91506324313186   -2.92537192347524    0.30254772924754
H           2.53163822531045   -1.42449872157691    0.30437454132576
O          -2.30401805598381    1.12910085045572    1.27533172457886
H          -1.44102301306974    1.40840026510102    1.60024820398572
H          -2.26951180700716    1.26500785299876    0.30407003413998
H          -2.63626403836738   -0.49297671189248    1.52860507081872
N          -0.07984055802653   -1.24352276436546    0.72960788050147
H           0.67877273731768   -1.91011650025322    0.94997764085622
H           0.14763244676049   -0.32716880262358    1.17198274276158
H          -0.05058402151808   -1.05534596423505   -0.30039668576796
H          -1.03655256937443   -1.54641977326416    1.03669202621806
