    26
        -50.46134389  Gyration_radius:  2.51498601209 Dipole_moment: 7.795
 S           0.31030963661743    1.48522242178438   -1.62639362494410
O          -0.19981061590843    1.30335977005185   -2.94400219378739
O           1.29795290717883    0.50282023545384   -1.19304905276467
O          -0.75868775035761    1.58596412363801   -0.60938687316617
O           1.06082596006046    2.88224154952062   -1.57343421460368
H           1.59190147756875    2.82378192526992   -0.78482360443474
H          -1.95615649122992    0.66481653144759   -1.45725398912473
O          -2.41129273264266   -0.03261011862758   -1.96364106773863
H          -2.29062845843032    0.23373635896280   -2.88011603926670
O          -0.27176081367806   -2.29798223285849    0.79328833977342
H          -0.73865777700444   -3.12916715140568    0.88422340823259
O           1.25307126507363    0.76734014786578    2.93130814404030
H           1.74037502650830    0.25206303841810    2.23173631337795
H           1.56585078512898    0.43668584146519    3.77428122471477
O           2.15134749525807   -0.75937806321678    1.00769280127312
H           1.98053179586472   -0.28560746092265    0.17043170505404
H           1.55433343018283   -1.51849434987765    0.98754891494451
O          -0.25136105022194   -1.62614728498172   -1.68058169134841
H           0.40789817835972   -0.90879896557080   -1.69770393369114
H          -0.23993275096458   -2.10663078787536   -0.20055357003129
H          -1.11177326807346   -1.19396348502902   -1.86937551187160
N          -0.95546295552651    0.17951121689883    1.55753900500745
H          -1.88296598290421    0.31885939440980    1.94330435312683
H          -0.78982434173613   -0.82755848634226    1.30996410895331
H          -0.85165444694511    0.76470343016479    0.66478236088492
H          -0.20442850216718    0.48523243121844    2.22421465739595
