    26
        -50.46995689  Gyration_radius:  2.40468818298 Dipole_moment: 4.974
 S          -0.97784138835765   -0.93885005805637    0.60927940916256
O          -2.18883219795085   -0.97139877925971   -0.20046094051638
O          -0.60402813025546    0.43430684850621    0.92898793895709
O           0.13108380776825   -1.61055588354258   -0.08420039036036
O          -1.26251883904224   -1.69842370470307    1.91674396929513
H          -0.50232946560520   -1.46847991719852    2.52788060022416
H           0.44290767452590   -0.97993707577366   -1.50513282648067
O          -0.90371200419144    2.78224537821745   -0.34544088557910
H          -1.01165249095251    2.17274949793196    0.40685041416833
O           0.60817783831512   -0.49182139935490   -2.35971002237057
H           0.92056698613598   -1.15093330204850   -2.98130241616434
O           2.34171511714094   -0.88699230110142    1.21305543858245
H           2.44761388396931    0.01507133912971    0.87964891130183
H           1.61850713495912   -1.27359097474476    0.67803085427539
O           0.82386428178411   -1.18138380362818    3.34303525401833
H           1.48642097951554   -0.98288109324601    2.63100978969142
H           1.13088105638631   -1.98005448897793    3.77775720891175
O           1.53177681575160    1.36903108966219   -0.35780358421922
H           0.05817923816489    2.82582670735908   -0.46235739843058
H           0.80767460511479    1.00187198267949    0.19171506092374
H           1.51675852320539    0.86006997533074   -1.17649595146496
N          -1.69843384921765    0.84651126502102   -1.95615027879752
H          -0.83574091747612    0.43983500398574   -2.37097807455634
H          -2.03380347112155    0.11157855202740   -1.24105292536183
H          -1.44042555803826    1.72319042991892   -1.40515969312842
H          -2.40680962069295    1.03301471189847   -2.65774943215145
