    26
        -50.46801047  Gyration_radius:  2.4589076983 Dipole_moment: 4.770
 S          -2.03066368708780    0.10562031322608   -0.38387227895074
O          -1.83944495390832   -1.23288380429728    0.11436536945247
O          -1.64763195530559    0.26106729178940   -1.78059446309248
O          -1.37752998807727    1.12368157916482    0.44046374424808
O          -3.58220927348746    0.40276783058321   -0.30461095434735
H          -3.65663855676474    1.26242109704752   -0.70598043787479
H          -0.07689761066184    1.40726831156172   -0.43265931554030
O           0.71698206098545    1.44622595897457   -1.02805951897333
H           0.33252260827998    1.38785767635375   -1.90836266922924
O           0.30352393461724   -1.69806041934292    1.64317348794593
H          -0.58482588196919   -1.67417548929377    1.23465431713162
O          -0.42466575071067   -2.03734618763608   -2.11814144868237
H          -0.90343745957052   -1.17848418362958   -2.16729853187858
H          -0.95761741449109   -2.55100672891263   -1.50183938631076
O           2.42390894814276    1.86581865067646    1.10609291534910
H           2.60931134954389    2.76837563733238    1.36936502060843
H           1.92614189412326    1.91208608736285    0.27678446529551
O           0.30752980146254    0.76675463645826    2.57004557142014
H          -0.39981033228646    1.00412241418009    1.94653086182919
H           0.34572999971723   -0.87265536196629    2.18883421570155
H           1.12510601236837    1.14255887634366    2.20177001684359
N           1.51387963144072   -1.12385980625635   -0.56031285317577
H           1.39872291956058   -0.09717152550629   -0.69454278316892
H           1.11835839634775   -1.39253162875095    0.42418561166480
H           0.87726857065308   -1.59474469235177   -1.26483197630149
H           2.48238673705628   -1.40370655313309   -0.66515898004548
