    26
        -50.45759502  Gyration_radius:  2.57487055083 Dipole_moment: 5.976
 S          -1.50049902283616   -1.75288197444161    1.21143850474511
O          -1.61011307606838   -1.69343666239187   -0.24936377861447
O          -2.39917920902282   -0.88279922088919    1.90318380820369
O          -0.10274054515847   -1.56877835326621    1.60601895702111
O          -1.86965151572982   -3.24861701836158    1.60788538478731
H          -1.22189797891819   -3.77378302512771    1.14632699367885
H          -0.30615716530432   -0.03440547184557    2.00421837712748
O           0.04506731211553    1.04739394792579   -2.49460211368301
H          -0.48548017293606    1.19087602149309   -3.27868110275384
O          -0.28561234217888    0.95702193224048    2.04643727868351
H          -0.99958026463788    1.17902795441302    2.64795908135399
O           0.77872869776130   -1.32469177789313   -1.24616474025481
H          -0.09855276725117   -1.57144256099355   -0.86163154943145
H           0.57803244281555   -0.66742892548155   -1.93337493042556
O           2.03550500994018    2.36213102985517   -1.27564918559503
H           1.38832638776554    1.93813768382607   -1.87971928053795
H           1.62149376951520    3.16921605986695   -0.96413437912032
O          -1.53144904506690    0.96857487150538   -0.43038385240084
H          -1.78169133859463    0.02450528320492   -0.39510790602627
H          -1.15958284012019    1.15637361410493    0.44867966736218
H          -0.59027965410384    1.06618870309655   -1.72124917866739
N           1.91949661619627    0.30023919198625    0.43698211759763
H           1.24267090207696    0.57198513964015    1.16077007079986
H           2.75603271802440   -0.07520485586160    0.86976988195290
H           1.45294224763576   -0.46572008546168   -0.18349607981379
H           2.12417083408092    1.12751850883400   -0.17611202598437
