    26
        -50.46800981  Gyration_radius:  2.45887363531 Dipole_moment: 4.784
 S          -0.11271880072827   -0.18135763031862    2.05854509234774
O           0.20385242698102    1.20875239905318    1.84894304035670
O           1.04156257446475   -1.06121457406786    1.93459130781424
O          -1.20790945029844   -0.65404627714701    1.21041203589846
O          -0.62063117217430   -0.31190168901962    3.55090249001142
H          -0.72446916495666   -1.25151789165748    3.66088439924191
H          -0.38712603369868   -1.42080078749377    0.08243741061525
O          -0.43071356874909    2.28588737102257   -0.51403329323619
H          -0.26764044912422    2.10005545336296    0.43224813190586
O           0.23641831975073   -1.80642604126929   -0.58749924751129
H           0.92907020543229   -2.19380771879089   -0.04311233049573
O          -1.44074668661809   -1.14219551707703   -2.68252023098438
H          -0.86778634182075   -1.58814746461505   -2.04182987862329
H          -2.09610147145666   -1.78310016763628   -2.96191378962953
O           2.74494613434053    0.65770670157997    0.91635723966878
H           2.25072406534620   -0.07472493171946    1.35048535665576
H           2.39840995905353    1.44430322257345    1.35105113539977
O          -2.48502299458440    0.66698355741696   -0.82085410429378
H          -2.22033144666235    0.11202276577369   -1.57399264230377
H          -2.22060704890377    0.17830997875713   -0.02293637297199
H          -1.30729944712722    1.86442176958669   -0.70024198687207
N           1.33105478374486    0.58522590354778   -1.32308579840369
H           1.74309692462893    0.71742542888449   -2.23961922792502
H           0.88729366277245   -0.35353835079459   -1.23817865557799
H           2.04559036149930    0.65420700635161   -0.54343176054051
H           0.57708462890170    1.34747747370147   -1.10360835054264
