    26
        -50.46306620  Gyration_radius:  2.54484768589 Dipole_moment: 3.868
 S           0.02154543482072    1.34627794572846    1.80285264388387
O           1.05018541319431    0.60790176457717    1.09640582822360
O          -1.09611094064451    0.48431825854375    2.18477306096451
O          -0.43167424059751    2.52346859501794    1.08914146032936
O           0.68076873547201    1.86061861067589    3.14494157846437
H           0.07438135629497    2.54875416831022    3.39740036078587
H          -1.05522201965337    2.34179192002966   -0.45837822489077
O          -1.39961718123302    1.92556419036432   -1.28232075175474
H          -0.62117162447902    1.53202220706627   -1.70400717109211
O          -0.70831783630800   -1.88338407597263   -1.12854206381891
H          -0.65248198866332   -2.46972390466997   -1.88389848628285
O           1.49522360391641   -2.04473970043182    0.72769845678585
H           1.40535475391550   -1.12890813159019    1.04786937372119
H           0.63769893281403   -2.26489399151038    0.34226370113508
O           2.89332674920001   -1.42457747786333   -1.48225971498689
H           3.75124018890243   -1.09060056169931   -1.21786279612509
H           2.48144658780084   -1.78613380228300   -0.66174402539531
O           0.79262024365733    0.24074990464557   -1.50798596804004
H          -0.12908297886699   -1.09763631487098   -1.34089192182090
H           0.92270018853034    0.48898588201565   -0.56572356510268
H           1.61990851876911   -0.23312055841068   -1.74000576195349
N          -2.37838909139857   -0.11138285233903    0.02440018731668
H          -1.93319735912518   -0.95422258976038   -0.38772590958489
H          -3.38071663276999   -0.22580669709244    0.12358219942540
H          -1.91657295121419    0.08358559874262    0.97276802328963
H          -2.12384587231672    0.73109162277499   -0.59275050347033
