    26
        -50.46801036  Gyration_radius:  2.45908467651 Dipole_moment: 4.765
 S           0.31054747326822    0.72092045446709    1.91397732083198
O           0.65338607568047    1.83232469054767    1.06332273944353
O           1.36260210467606   -0.28248104877977    2.00397559407231
O          -0.96254914467895    0.09435564866490    1.55446790604302
O           0.11829713683074    1.30605306210748    3.37089981263716
H          -0.03404521406971    0.52743700748891    3.89650695646127
H          -0.43850246506289   -1.18234646633080    0.76115204173406
O          -0.39736463319716    1.89154340045290   -1.39417332472068
H          -0.05101827580892    2.10140218338875   -0.50388497046965
O           0.00866004549655   -1.89796851715171    0.23749254843935
H           0.77664562986262   -2.11451417818689    0.77553634726616
O           2.91011570941552    0.58633704671673    0.06954727756969
H           2.47654939975342    0.18369707045732    0.85646035377744
H           2.70790396095861    1.52341570299247    0.16268995686506
O          -2.03952869957826   -1.95356664638570   -1.61927903910436
H          -2.77304561704857   -2.55097831921487   -1.46639393605110
H          -1.36590783279489   -2.16109831180399   -0.95525363334325
O          -2.55765808879537    0.60462999639883   -0.61250429671689
H          -1.31558258003418    1.55937473936713   -1.22898297877219
H          -2.49168239387288   -0.24877970338994   -1.07370026768458
H          -2.16008063099507    0.46574858918390    0.26389461823938
N           1.05905286943721   -0.22170069335893   -1.64497148471695
H           1.27837470987087   -0.54779425227692   -2.57923312636164
H           0.59062499423610   -0.96396405090866   -1.08365539857170
H           1.92285722054014    0.06763272581347   -1.10323102591333
H           0.41134825591402    0.66031985974918   -1.66465998099588
