    26
        -50.44868290  Gyration_radius:  2.48364133953 Dipole_moment: 9.439
 S           1.20688240385760   -1.76825010110205    0.84525239778612
O           2.12869792205586   -2.83509360710074    0.66625809774672
O           0.61594661890622   -1.24433611144301   -0.38871628763778
O           2.03782434252806   -0.47797773784409    1.42016412637294
O           0.17943579662361   -1.95531172787020    1.86224579269554
H          -1.08326940118577   -1.21026672438823    1.57017173698466
H           2.59164254302495   -0.22909350266101    0.64541323636996
O          -1.87566039766322   -0.57280468045230    1.48093510432492
H          -2.41494708968291   -0.72894000276722    2.25817789306893
O           0.46456179007310    2.12413619793063   -1.24372791050577
H           0.10411340166940    2.91689803235128   -1.64245986655738
O           2.72719882688129    0.23386206404742   -0.99975108159992
H           2.27917906790529    1.05760575494394   -1.22837688905358
H           2.05774099024655   -0.46247711099825   -1.12764097490464
O          -2.99518175859169   -0.31983044303299   -1.01261810168798
H          -2.61937560504473   -0.45006404631488   -0.12266037993364
H          -3.32205647320941   -1.17583791670573   -1.29480728180364
O          -0.64693751306654    0.07882854220089   -2.31030177801965
H          -1.57061308403123    0.04162812653744   -1.99107866216095
H           0.04648913807520    1.34456344757280   -1.74377236889828
H          -0.17946587422630   -0.57581742541886   -1.75909866191864
N           0.04404157894904    1.26417248854091    1.23354390951760
H           0.16016028826540    1.66534931137721    0.25857655361103
H           0.04549474928333    1.99989565362867    1.93333094074170
H          -0.82962641083708    0.68242589768414    1.29530654886225
H           0.84772414919130    0.59673562128932    1.39563392659278
