    26
        -50.46507308  Gyration_radius:  2.55391111438 Dipole_moment: 4.277
 S          -0.67089205937513    0.70637504214181   -0.22068540458473
O          -0.26479843525028    2.04753804964255    0.44167527142113
O          -0.06481160641497    0.63961855783630   -1.54308208316697
O          -0.16258701705169   -0.37056811814402    0.64012680583517
O          -2.12729428295141    0.65430151541198   -0.26971930127230
O           3.50333632943390    1.37356174497828    0.19528891223328
H           4.24565211325099    1.82147525365377    0.60355634557174
O          -1.63336806268210   -2.29240000254086    1.69384376765842
H          -0.99110658015654   -1.61033470514154    1.38732687946069
H          -1.98786005359796   -1.96410894478074    2.52150839988193
O           1.59498489476721    2.68441147895093   -1.15479774753034
H           2.38941434460757    2.26474452840529   -0.75218684431704
H           1.20833372511403    2.00651963830685   -1.73174918860730
H           0.46913106742147    2.43690778652836   -0.14821320492288
O          -0.17536446682226   -1.94929389974791   -1.85299343264611
H           0.42616584321797   -2.23396797112662   -1.15962357258758
H          -1.68610041712118   -2.03728612724926   -1.30684072837496
H          -0.07196625277980   -0.96750650844467   -1.88498784174421
O           1.70937473359782    0.80478651224730    2.10389847037053
H           1.25360315203004    1.63719335776198    2.25612123239456
H           1.06473980720720    0.25824152604990    1.60794105793016
H           2.92250369040373    1.07087835602684    0.93067277099441
N          -2.56554772520966   -1.83053482859832   -0.74883751624206
H          -2.54055990646136   -0.76417710002514   -0.60438112938742
H          -2.43427759967950   -2.23732686266039    0.20509913745075
H          -3.41070523550230   -2.14904826945736   -1.20896106576482
