    26
        -50.45798173  Gyration_radius:  2.74761962775 Dipole_moment: 2.199
 S          -0.94256124561194    1.49692654536773    2.17558158058973
O          -2.02741087654421    0.68096153392929    1.62380993790162
O          -0.42272115770979    2.43179954049540    1.20486740921549
O           0.07510697201505    0.66801068580197    2.80231535908354
O          -1.58838210234658    2.35236030123159    3.34474225319953
H          -1.78152756503234    1.67897235341766    3.98929339388476
H           1.01035796363596   -0.14959186478146    1.81943350120368
O           1.63754636002368   -0.55389384154951    1.15862812358525
H           2.49058802699641   -0.57962081659266    1.59563271478577
O          -1.37415076707644   -2.31761980668820   -1.34788511806030
H          -1.73754431830311   -2.87324604972557   -0.65666803981718
O           2.02790908169773   -0.28181108868835   -2.72207451908984
H           1.76744839549223   -0.04401655694013   -3.61233540981301
H           1.77236595123788    0.45237348220490   -2.14363655929803
O           0.95285500448889    1.27313142162746   -0.68687753962678
H           1.35189342993967    0.60358554809157   -0.09110157647256
H           0.57576043321083    1.93048478066380   -0.05981673679278
O           1.21504632558454   -2.28513554840887   -0.98715701595649
H           1.60592140270201   -1.72873084313287   -1.68182071632348
H           1.36475810976426   -1.80526095744172   -0.15687659221025
H          -0.38331490199106   -2.40284892369430   -1.27459508244844
N          -1.52913333441434    0.29118180109855   -0.88097965694212
H          -0.54535121791883    0.65989474292520   -0.96683022898932
H          -1.54652448950921   -0.74370072244255   -1.10074607657684
H          -1.80963817575383    0.44260653498226    0.14349271799174
H          -2.15929730457877    0.80318775824606   -1.48839609302120
