    26
        -50.46539902  Gyration_radius:  2.43473427726 Dipole_moment: 6.433
 S          -0.55241655269776    1.84270805368384    1.34445382014195
O          -0.29505290006501    2.92394740152843    0.44692820376345
O           0.63225968448473    1.09095591401687    1.75396024731243
O          -1.57678612101412    0.92309764766467    0.82692752083630
O          -1.14960657170022    2.44269222680075    2.68513934414131
H          -1.07531892812524    1.72079315654922    3.30195044543953
H          -1.22766600802021    1.17563551134926   -0.73576678094649
O           2.00249237953200   -1.49682162980915   -0.96893149679788
H           2.86142329122628   -1.70026647614949   -1.33980675070285
O          -0.89710443171631    1.24857425023756   -1.66482844585199
H          -0.96161879061771    2.18552062083116   -1.86317802937192
O           0.84091369149941   -1.58451202018823    1.65946595981283
H           1.41744632617360   -1.71508813521409    0.89491977582088
H           0.82085758648382   -0.61745725101925    1.80928099468591
O          -1.57332461812947   -1.69909364340878    0.63666569397408
H          -0.73285402356748   -1.84573111443191    1.14359374445458
H          -1.76505901602202   -0.74732375740174    0.79143324638892
O           1.73385303805562    1.05167796565207   -0.64918551969881
H           1.49352686086446    1.18625102985264    0.28981654054472
H           1.98135585869997   -0.50070575134433   -0.83488585156785
H           0.95259165941969    1.34891768640710   -1.13965933169463
N          -0.58646318232630   -1.45896175753741   -1.71336129722945
H          -0.73790397148060   -0.46279171766483   -1.93981723203563
H           0.43383742386417   -1.61463224284221   -1.56675739228794
H          -1.08004686496814   -1.63611051137105   -0.73046045149107
H          -0.95933581985159   -2.06127544596842   -2.43789692770309
