    26
        -50.47114547  Gyration_radius:  2.41073262379 Dipole_moment: 3.631
 S           1.21802321955406    0.42147514066787    1.53661752816565
O          -0.10194537863959    0.20356767917815    2.10459889913382
O           1.28250911737702    1.57817335954374    0.65842165152160
O           1.75265023589935   -0.77494937179031    0.90939458433642
O           2.16070169491457    0.75020856453788    2.76593061157546
H           2.98243532712312    0.96767602641085    2.33913972794941
H           0.45405128615150   -2.45820742878275    1.31753787101046
O          -1.99863931766260    0.90446028075223   -1.26085081960555
H          -2.82804153360641    1.26441605472400   -1.57706579402290
O          -0.48794268240089   -2.27909609362669    1.42451126508006
H          -0.48944175006945   -1.38166115958474    1.82822856370674
O           1.38324858347506   -1.21660469939242   -1.68645167413973
H           1.30653989215155   -0.28555835897143   -2.00471408213687
H           1.69438772685092   -1.12619440003891   -0.76049787361603
O           0.75076096247781    1.33214301059773   -1.97179051154033
H           1.04393824149571    1.53305416287824   -1.06249015932835
H          -0.21522142118996    1.32365258737000   -1.93714222815474
O          -1.30070737659662    2.19236932111395    0.88586555475342
H          -1.78167692201283    1.40929417886032   -0.42150232053748
H          -1.16490349640880    1.48258383778254    1.54048983613157
H          -0.38465157444739    2.43720714465185    0.67740016614391
N          -1.08580034064649   -1.66657957115552   -1.07294818033866
H          -0.98325942610831   -1.96141866981573   -0.05535007245165
H          -1.59708487359488   -2.36016314724499   -1.60679817654473
H          -1.54672369449324   -0.73793142498859   -1.13244036972890
H          -0.06320650960956   -1.55191702364660   -1.43809398738641
