    26
        -50.46539764  Gyration_radius:  2.4345838287 Dipole_moment: 6.413
 S          -1.69953724198833    0.71269832874975   -1.45230349522817
O          -0.53526025822114    0.10309531133541   -2.09223514667491
O          -1.62099096238609    2.13008237592502   -1.29124891948908
O          -1.99423304613221    0.02655637472913   -0.18553448278918
O          -2.91826435189493    0.38836208009547   -2.41346275882709
H          -2.75191622945710   -0.50940614198512   -2.68445994412387
H          -1.26320666309096    1.12515783009131    0.75534833566364
O           2.64118636712209   -0.34502261681211    0.29544911932121
H           3.57636617857769   -0.15397630988187    0.22101117017073
O          -0.69271443400537    1.73739688181616    1.28216318887276
H          -1.06891952479235    2.60551972226848    1.12048465923628
O          -0.83645454619523   -2.04635878481490    0.94282384021329
H          -1.44776287055974   -1.37617651449898    0.56370885401768
H          -0.24665656214006   -2.27246248742052    0.17738550541340
O           0.78565220285085   -2.02305605643418   -1.12013196176471
H           1.59066481471551   -1.61831517683583   -0.77064069086302
H           0.31404227757702   -1.30434292269569   -1.58823836483902
O           1.24242103647050    1.54674370190075   -0.76968161888993
H           2.16159085495962    0.40581767522449   -0.17016760314423
H           0.65762839100809    1.11859233908337   -1.42704005746095
H           0.63342009445118    1.90033045867653   -0.10379060528860
N           0.71170439552102   -0.42166897202781    2.17461402642343
H           0.02816053423288   -1.18032125774146    1.72887040877735
H           1.58189348460846   -0.43092853163360    1.60080126499799
H           0.24860828674793    0.49362128174645    2.05486221577252
H           0.90257776206018   -0.61193858893186    3.15141306050907
