    26
        -50.46507291  Gyration_radius:  2.5536820123 Dipole_moment: 4.278
 S           0.01274099102742   -0.87761602756744    0.47837176908931
O          -1.36223456820329   -0.97306813411323    0.00848151412331
O           0.87613850696821   -1.89551718866107   -0.30961263783394
O           0.56452377223843    0.45683478378148    0.20615840078021
O           0.14146833716558   -1.18577261094624    1.89776991610389
O           0.02324992999861   -0.41806781278351   -3.74465121621102
H           0.41694192249408   -0.57447049063290   -4.60427739800925
O           1.38666071175752    2.16288637779107    2.04479254982721
H           2.30377537901403    1.96201938173362    2.23748291815445
H           1.14499991719350    1.60076025150713    1.27198086168450
O          -2.16965094032181    1.37620333435802    0.80929508779589
H          -2.01730712295163    0.46611518364422    0.45716402430300
H          -1.46621168666512    1.22346596455395    2.24819253712109
H          -1.62706336171362    1.94398481419130    0.25533565875740
O          -0.78154149231823   -2.41707428034882   -2.15146259992710
H           0.28878279127411   -2.22252771991431   -1.07546252706823
H          -1.43006502847117   -2.00134728385019   -1.56115563161497
H          -0.57642144168865   -1.73943860474866   -2.83569178727148
O           1.98876301505294    0.12712664316227   -2.00557656713184
H           1.47743309315184    0.37636556362098   -1.20768840545601
H           2.36240133867963   -0.73277535227708   -1.79382860037805
H           0.74975655387400   -0.10274772460912   -3.15939013073648
N          -0.77080488989293    0.94619308407693    3.00128147225620
H          -0.41752321828557   -0.02157873444059    2.68930410685226
H          -1.17482883785453    0.94066667418594    3.93089735660950
H           0.05601633845789    1.57937989823560    2.91228933816748
