    26
        -50.45798176  Gyration_radius:  2.74753106821 Dipole_moment: 2.200
 S           1.20014504823962   -1.50377371983774   -2.03938549587164
O          -0.23548522938015   -1.36656648343576   -2.29885863339487
O           1.46102484506620   -2.18641663836406   -0.79344245882315
O           1.88418301284387   -0.22664192165605   -2.16866616210114
O           1.76967385549145   -2.42243779353180   -3.20017943343466
H           1.67907543175537   -1.85191708964452   -3.95674173416080
H           1.63762838095489    0.81712160673621   -1.00304465582699
O           1.53639367532680    1.39113349492418   -0.19447889600166
H           2.36451312695867    1.86721477290910   -0.11142255972808
O          -2.75566958618537    1.21975824497319   -0.01695344569212
H          -2.88740127621272    1.61247239842316   -0.88120379616909
O          -0.18178324025339    0.89345293495643    3.28150183456207
H           0.28602379903832    0.19747203701883    2.79601025089533
H          -0.74138420989003    0.46053382551129    3.92681655087598
O           0.87465012175722   -0.74034695440222    1.29910885500695
H           1.24829906087812   -1.42121356034597    0.69553006669414
H           1.17774744958455    0.10150747678828    0.89672070334468
O          -0.71768226304702    2.45712081776524    1.05600351146141
H          -2.05544405627842    1.77121164584119    0.43017795054859
H          -0.56861057308638    2.07664349433106    1.93800352566404
H           0.05839332051523    2.20400299122022    0.53094135245148
N          -1.42664273403691   -1.07833249377468   -0.02454567549219
H          -2.02836271520060   -0.20801866825770   -0.03433349406292
H          -0.99723644556317   -1.22543327454599   -0.99672068290319
H          -0.61254006846250   -0.94484667400098    0.63164490824085
H          -1.96950874080947   -1.89370048960254    0.23751760391067
