    26
        -50.45798189  Gyration_radius:  2.74748579381 Dipole_moment: 2.189
 S          -2.03843563722190   -0.05315236471855    1.92437613112426
O          -2.66856471632992   -0.17362854855479    0.63016077854275
O          -1.27253005571880    1.19001497240494    2.04731257774314
O          -1.23641813349670   -1.20657578777510    2.30118076864536
O          -3.20061698389030    0.04008408233077    2.99972594286523
H          -2.71072521121324   -0.00957851232633    3.81439059451963
H          -0.11651609593177   -1.64803479422078    1.27156373016947
O           2.36019186287916    1.86703024020053   -0.09287027288413
H           2.69889016059628    1.93592548499083    0.80102112066982
O           0.49561270382577   -1.94770220594418    0.54422259363898
H           0.53339428625520   -2.90299804501158    0.61706189683694
O          -0.96370158946940   -0.63773971729554   -1.29078340693360
H          -0.39296225044497   -1.22150355559856   -0.74679646774208
H          -1.78280896501781   -0.56396849562709   -0.75106661059654
O           1.11637065313030   -0.75291474180124   -3.12775121335178
H           1.03957969749325   -0.17713197196675   -3.88903928476023
H           0.24879589356150   -0.77455932251326   -2.69676366371770
O           2.58093898563454   -0.64722836838793   -0.77542511278820
H           2.55366990414490    0.93430041657326   -0.38760639498571
H           1.95583778888127   -1.13297405689152   -0.21382933890383
H           2.24155208266551   -0.74082958980771   -1.68135357078797
N          -0.28548970437047    1.74362682271568   -0.27530753466800
H          -0.49876885771089    0.86524070035313   -0.81763430237683
H          -0.69155169045270    1.58782655813573    0.70541703487291
H           0.76163802541970    1.87813927865911   -0.20430880777587
H          -0.72738213321744    2.54833152208681   -0.70589717735513
