    26
        -50.46896692  Gyration_radius:  2.40432232078 Dipole_moment: 6.654
 S           1.34618086971721   -0.37159435235046    1.11526349434461
O           0.60510556729787   -0.78808583462172   -0.08132226282169
O           0.87450091148907   -1.07036744970902    2.28466735074870
O           1.27479691219647    1.08740541486804    1.24587963116826
O           2.83668069960706   -0.75686967727367    0.89078554394825
H           3.13337589135119   -0.11183361914468    0.21203684791103
H          -0.13901487485625    1.60983364283734    0.82928239040867
O          -1.04922407115967    1.92400668543186    0.55758112400709
H          -1.36431433789347    2.44586457260038    1.29739844099305
O          -0.96296130413801   -1.24695134158876   -2.22394225902038
H          -0.26896584774010   -1.51497428604923   -1.60028225152015
O          -1.46884151282269   -2.02869567139846    1.76511886993451
H          -1.26188381804185   -2.91105161978364    1.45068321316981
H          -0.59291697846458   -1.64751155239580    2.04427400918471
O           3.04326344265120    1.31579438092511   -0.72621671112004
H           2.51794638325277    1.63568935929587    0.02651270397396
H           2.42180164199323    1.29100760898643   -1.47025445274535
O           0.47716371452985    1.13523899542709   -1.86828174607899
H           0.57059690651822    0.44167819197102   -1.17435762264107
H          -0.60075447085161   -0.44992806704555   -2.63904857714975
H           0.00274101726949    1.85299066281495   -1.44009374829290
N          -2.30819606450137   -0.36114794047674   -0.10521670012481
H          -1.87209978507680    0.56375648081629    0.13520066838751
H          -1.88768991607094   -0.70219596108405   -1.01726171291246
H          -2.00860825289695   -1.05076646209269    0.65033030242051
H          -3.31868270586098   -0.29129215047435   -0.15873653610937
