    26
        -50.46896687  Gyration_radius:  2.40435877716 Dipole_moment: 6.656
 S          -1.66574020396790    0.38607857967223    0.52064267733581
O          -0.37429212597530    0.92162944925302    0.07369380612301
O          -1.76730537534019    0.41419900280378    1.95838256674054
O          -1.85717863047780   -0.95295415820053   -0.04615755582464
O          -2.77341009631386    1.31141637209796   -0.06003301191497
H          -2.76457565048642    1.09497950739288   -1.01807756762932
H          -0.50759204573438   -1.74247725370231   -0.06453640161276
O           2.10767092798364    1.54834578242450   -0.76688055733414
H           1.23363077964790    1.79502699233708   -0.42397839505063
O           0.36592906792159   -2.23031273591480   -0.06878962622732
H           0.19300728719806   -3.05613898661445    0.38619901728061
O          -2.39372371698942    0.15865797892011   -2.40099231586497
H          -2.36808983212107   -0.56794623398460   -1.75581274823932
H          -1.48361595505579    0.23332511552628   -2.72739677810237
O           0.61581452306329    0.62817295433575    2.93499471147938
H          -0.32101146923687    0.49800428353842    2.62533941416651
H           0.71188464734546    1.57791357968028    3.02969019284434
O           0.39593824591549   -0.15524393774521   -2.19701663847681
H           1.90869427614276    1.12909940875863   -1.61733874461219
H           0.49146215820693   -1.09436873387492   -2.01670176108377
H           0.05281075594607    0.23177801571361   -1.35809072689694
N           2.06694985425034   -0.43987169886828    1.00188341482670
H           2.21478368488822    0.32655147705311    0.28376407087539
H           1.45516696838346   -1.17981891545403    0.57556028881569
H           2.94637906056396   -0.82793231457550    1.32566023685262
H           1.51641287547965   -0.00811351172447    1.80599242849827
