    26
        -50.46896692  Gyration_radius:  2.40432534486 Dipole_moment: 6.653
 S          -0.54113606256072    1.19838280749404    1.21007692509497
O          -0.44276319528497    0.86646675382980   -0.21633464561708
O           0.54677453623855    2.05160613066860    1.61848439794454
O          -0.62882177724932   -0.04002180182668    1.99083581282568
O          -1.87037968729053    1.98184026022217    1.40949079649126
H          -2.55655813690452    1.28808831671048    1.29680066605696
H           0.29728919537671   -1.14261761208832    1.38059019670455
O           0.89493671031702   -1.83441771328412    0.97423140941190
H           1.45689177737720   -2.13156857354144    1.69176154347218
O          -0.10195160841578   -0.06265533702166   -2.72261974789734
H          -0.34556522209759    0.63833625591174   -2.09681904370849
O          -3.15588465149593   -0.31192954759675    1.21056952341101
H          -2.37886586212018   -0.50627680354483    1.76134956513446
H          -2.99169909458546   -0.77793633222795    0.37614237906910
O           2.42960253839578    1.86126254435582   -0.14164457586791
H           2.22309884225489    2.58345605133369   -0.73834403336012
H           1.76485885864216    1.94303383358298    0.59449217444046
O          -1.50388025950996   -1.47924156817683   -0.74672027486864
H          -0.99015121207116   -2.11440711553679   -0.24051867398146
H          -1.13699029443835   -0.59890962221793   -0.49843963955037
H          -0.73462223007418   -0.77049713339058   -2.52932172086969
N           1.97401033715967   -0.54712970017089   -1.12915248408474
H           1.21026557068899   -0.43012702029843   -1.85572687984825
H           2.19425971543283    0.42549365168710   -0.75271666842834
H           1.58608224580103   -1.10423806918496   -0.32748043550021
H           2.80119895650449   -0.98599265534482   -1.51898657687453
