    26
        -50.45914053  Gyration_radius:  2.58589788011 Dipole_moment: 4.026
 S           1.41128678297160    1.69984043946324   -0.86772509034389
O           1.17352838971495    2.94619114616353   -1.53323701890279
O           0.91563790443484    0.52362375918986   -1.56546763066165
O           1.01690765177256    1.68171358568697    0.54322600928287
O           3.00946309479357    1.50649126130000   -0.84132050611921
H           3.33649119937389    2.37154645163051   -1.06977336270777
H           1.10599077992207    0.38905025430919    1.44127170411372
O           1.16667871932912   -0.45764792034253    1.96446394166965
H           1.68446022781681   -0.25074079599804    2.74333814812698
O          -1.43402187367314   -2.63708240629813   -0.34418725012335
H          -1.89469621515477   -1.91040107980111   -0.79159647230731
O          -1.33102225597460    2.30672664773952   -0.56407047009188
H          -0.89178542303877    2.73026531322455   -1.30961380935794
H          -0.61240988632557    2.17504034152090    0.07479364619241
O          -2.52729296467576   -0.08942357579690   -0.51058613294883
H          -3.45194164109410    0.13589939266506   -0.62273835469978
H          -2.03566742394203    0.75249157112988   -0.62762332131754
O          -1.55195730475342   -1.21556542017796    1.90732500954962
H          -1.57134324388137   -2.42629191275969    0.60648483545867
H          -0.64788840633166   -0.90500588509801    2.06498632386337
H          -1.94966033832372   -0.58394655670088    1.28889883593987
N           1.03574760641188   -1.77405680856788   -0.39957237939573
H           1.23651250606383   -1.52000208984870    0.58268623442066
H           0.05752580723691   -2.21715044899099   -0.44809661951326
H           1.00158169846588   -0.84661943237622   -0.93939570768024
H           1.74787460894123   -2.38494585126881   -0.78247056232194
