    26
        -50.46896690  Gyration_radius:  2.40427157993 Dipole_moment: 6.654
 S          -0.58521381324950    0.46267472852486    1.62405135720295
O          -1.97187373424251    0.85491393377441    1.58464279048449
O           0.12000415084728    0.89935377174779    0.41311762545518
O          -0.39775335281541   -0.98121801052013    1.79966338201040
O           0.08530931590056    1.17984913993471    2.83093447128350
H           0.95316673129546    0.72594404552637    2.90540785558064
H          -0.43247472675511   -1.71386137023151    0.41850209353568
O          -0.45667387192399   -2.16339262202816   -0.47497909849030
H          -1.12152268717066   -2.84894130376358   -0.39163308526680
O           1.35794799840198    1.35399982703569   -1.93659352913933
H           0.99517591135996    1.65821556264918   -1.08908659994522
O          -2.59622558117694    1.37569129447059   -0.86863041675995
H          -2.43415957325634    1.14542848640044    0.08592973550158
H          -2.43576842512118    2.31996375788665   -0.92249419375327
O           2.08807527072627   -0.52307199654534    2.62403233384343
H           2.51966842690712   -0.51108764208255    1.75572462188780
H           1.28760263794577   -1.05966979345955    2.49689075322336
O           2.11595222529537   -0.70298230900151   -0.18474715125219
H           2.04780566338280    0.72536070752827   -1.67660028620628
H           1.36919321564124   -0.12323553485043    0.09376977926509
H           1.71669890305570   -1.56199542220131   -0.34685604529254
N          -0.84876512214814   -0.11439169528978   -2.17612412755561
H          -1.16206208352751   -0.38338361484797   -3.10256172529039
H          -1.57307574867502    0.49464925049626   -1.68563162349856
H          -0.69222357901118   -0.95464785586868   -1.56539770482799
H           0.05119184902978    0.44583464590130   -2.21133121337925
