    26
        -50.46273245  Gyration_radius:  2.54390563846 Dipole_moment: 3.770
 S           1.73659406638772   -0.17308880552116   -1.63085549097663
O           1.49724173232977   -1.25201256455804   -0.67909797692430
O           1.54408610592969    1.13373411287703   -0.99774222769680
O           1.02415672973513   -0.30394139811060   -2.87223629753696
O           3.28691220537936   -0.25450438895068   -1.99903080818535
H           3.28619992381733   -0.30704077410341   -2.95001861922925
H          -0.89177437447486    1.02844526794463   -2.65583785656595
O          -0.95298112098007    1.27432993027407   -1.72783169249997
H          -0.01081655545431    1.34357270112521   -1.44646885544720
O          -1.54151422049672   -1.96828891154595    1.72995250272499
H          -1.01417342109762   -2.76145416076535    1.83814604188102
O          -2.19017010498147    1.71458687911755    0.63723867081508
H          -2.97025683920826    1.16602517477031    0.52626366823610
H          -1.76630827337164    1.75058984322198   -0.23916397662499
O           1.92351421433664    0.25364350208129    1.41580713637658
H           1.95465711060981    0.91804152690593    0.69911859236102
H           1.89873456189319   -0.56663783318174    0.88154026033739
O          -1.16059423613600   -1.32146435614305   -0.77487857060789
H          -1.52356789656329   -1.77328828099945    0.75489934692542
H          -1.29188051670794   -0.43350895444793   -1.14706272530557
H          -0.19547430190711   -1.46257072308608   -0.82941191214555
N          -0.52924559787173    0.41054612404382    2.31224110275903
H          -1.10870313463721    1.02264927335993    1.68698245518499
H           0.49376861018506    0.39120497010544    1.97343112127398
H          -0.57900239674931    0.73829525504797    3.27060767120005
H          -0.91940229996635   -0.56786339946617    2.22340845966607
