    26
        -50.47071329  Gyration_radius:  2.41583834391 Dipole_moment: 4.163
 S           0.27040391872987    0.10577414270666    2.00671093990405
O          -1.16394786990984   -0.06552291823500    1.84458175461396
O           0.79351097476923    1.30939715370587    1.40681973806870
O           1.00488703059105   -1.08493390541814    1.57424587294293
O           0.52078993525860    0.23884642475106    3.56434407563090
H          -0.01841763811494   -0.46031013405681    3.91781197737778
H           2.16969252557600   -0.54371287812780    0.54412642207084
O          -1.08327352100769   -1.31934631107435   -1.86452547973705
H          -1.41759986405110   -1.96804761306089   -2.48477580461860
O           2.70117822004674    0.01499623470423   -0.06939850123666
H           2.70271585813451    0.87222438114821    0.37125271832540
O          -0.20491267182175    2.46325580629471   -0.77661039549942
H          -1.11831344067094    2.09540730860544   -0.71270059805738
H           0.18282938920417    2.26898129342691    0.10067860272049
O          -2.28266171519003    0.86844765286638   -0.42921173120382
H          -2.08757162993143    0.12429375831656   -1.01427081078616
H          -1.99498630326811    0.59098276496539    0.46171166051057
O          -1.00874652011588   -2.36940457066118    0.51027045826924
H          -1.54582134281466   -1.73397641103872    1.00876174609595
H          -1.03923794667007   -1.78197477257565   -0.97626310527781
H          -0.11148880538926   -2.16462555840263    0.84125318073273
N           0.95439713438829    0.49695466487899   -1.99415390842757
H           1.71430538570709    0.22910825986855   -1.29845825578645
H           1.34679739739305    0.67524855131194   -2.91168253149312
H           0.23647203762577   -0.25164523196213   -2.03718186617224
H           0.47899946153739    1.38958192704485   -1.58333615893657
