    26
        -50.47071312  Gyration_radius:  2.41592950208 Dipole_moment: 4.158
 S          -0.84719786541174   -1.58691576243706   -0.93620689604422
O           0.08113983426214   -2.18370995655337    0.00931651893464
O          -0.22234136523239   -0.74683307202885   -1.92918611671286
O          -1.94315750568446   -0.89977655751074   -0.24922049475068
O          -1.50576183876845   -2.79261973766195   -1.72301300138957
H          -1.71234987051977   -3.40334219712085   -1.02385939093707
H          -2.02176291909937    0.60279089548487   -0.91992381720931
O           0.57790052311923    0.99774716608503    2.25051798642385
H           0.61382631984562    1.33656471384788    3.14563901294454
O          -1.80562420884627    1.42547937150353   -1.41725585056546
H          -1.42146724061572    1.08544624947038   -2.23334571073895
O           2.26034851194562   -0.74285161343804    0.69039835320305
H           1.86841825891019   -0.17615340733993    1.36802558405983
H           1.56341672812898   -1.37781834101743    0.43577681617240
O           1.98617237836368    0.68431894676081   -1.51637744454902
H           2.35105569476495    0.14951560633629   -0.77175875064827
H           1.27914129404821    0.11551795799200   -1.88279634394990
O          -0.99970413395421   -1.06498239849708    2.18248407106321
H          -0.06775694209841    0.23121667878681    2.26981286125066
H          -1.59108217624526   -0.89274428590138    1.42186192990906
H          -0.40947127594704   -1.74209051315596    1.81850919706340
N           0.39137619344320    2.22502515137211   -0.18353964790427
H           1.13230425472195    1.67367306118967   -0.76531014326362
H          -0.54982520544398    1.99711015101145   -0.62549597035904
H           0.42055257734239    1.86308597157579    0.78913105230056
H           0.57184995897179    3.22234589125546   -0.20418379431473
