    26
        -50.47071357  Gyration_radius:  2.41588130659 Dipole_moment: 4.150
 S          -0.41113862283975   -1.10409190918284   -1.64992609736271
O          -1.25805599760908   -1.55440516108659   -0.57187881106074
O           1.00844012203401   -1.31592069726565   -1.42127537451819
O          -0.69299107434315    0.28377883341850   -2.02296656091765
O          -0.78644622534809   -1.98613417371787   -2.91012657387574
H          -0.06874794568312   -1.80395373903552   -3.50693647213662
H          -1.90733973868700    0.77899911023379   -1.02708970047756
O          -2.55344799378335    0.84016075723150   -0.28557616277968
H          -2.85782941574527   -0.06971192593263   -0.19325671710706
O           1.55954021242223    1.72815797495997    0.98575444332345
H           2.12030174430623    2.47511743860867    1.19766594083634
O           1.90289860891130   -1.12679588630846    1.11984109854533
H           1.99264418152700   -0.16650573182169    1.18216330221948
H           1.66627861588423   -1.31395840070539    0.19113768242157
O          -0.55278051908582   -1.55467840789120    1.99649317970086
H           0.42476773927966   -1.57765196774530    1.86411921272056
H          -0.90969330292258   -1.76841028326417    1.11063862830118
O           1.68755148656809    1.26245728252011   -1.56692398692777
H           1.61423759726490    1.61359911127470   -0.00851968050416
H           1.97025063951823    0.33518700746166   -1.57306149963747
H           0.75343206108111    1.18211681615299   -1.84679269211506
N          -0.94287660677349    0.99551799583594    1.80475037324081
H          -1.31583927330047    1.47825629025064    2.61436801250498
H          -0.02113388153869    1.38720689180192    1.53170675176261
H          -0.80547374007549   -0.06908220105434    2.00343300764298
H          -1.61654868112648    1.05074495526531    0.98225872620349
