    26
        -50.46507301  Gyration_radius:  2.55414791715 Dipole_moment: 4.281
 S          -0.97521823918634   -0.20585673474557    0.04588826133268
O          -2.07147277057040    0.51211979474838    0.68544379086161
O          -1.47442087741005   -0.70517872947791   -1.33392452241223
O           0.14214973361197    0.71414740011297   -0.20777920407455
O          -0.53146662077877   -1.35471732694462    0.82277288673979
O           1.84868585317568   -2.37065126560367   -2.27615431556900
H           2.15470470519333   -2.71360615845773   -3.11706831085453
O           0.27078541800401    3.21272099656928    0.63333959748717
H          -0.16558092192005    3.76149917439254   -0.02010959656542
H           0.32083808117552    2.31144869637524    0.23722560763459
O           1.00329879924174   -0.07229682996890    2.49990128934394
H          -0.08287298062792    1.09041926413031    2.74030908463013
H           0.46151603181028   -0.68939587379387    1.95120300252639
H           1.68156228357531    0.25210913427988    1.90122007920646
O           0.92307599225522    0.11404807737198   -2.66938219072064
H           0.05218008441042   -0.01682929292614   -3.05443011198030
H           0.74476794606631    0.40420273189370   -1.75056786470604
H           1.63044771563408   -1.42210540557308   -2.42566635574579
O          -0.52323587058480   -3.04975714024023   -1.22976322606169
H           0.37661434481409   -2.94322308699887   -1.61495208577770
H          -0.42215638455255   -2.86875408762238   -0.28163934427874
H          -1.18462151052489   -1.68003713837084   -1.39730226852369
N          -0.86585238074260    1.78509786990962    2.56184025086424
H          -1.51263684689971    1.27882012365854    1.86604131244805
H          -0.45946414236902    2.58384125717474    2.02390004745663
H          -1.34162747275248    2.07193455012241    3.40965418679390
