    26
        -50.45360773  Gyration_radius:  2.42572826874 Dipole_moment: 8.129
 S           0.00233696199879    1.49178326292892    1.79553971264090
O          -0.84583311366520    2.32249610169508    2.57886858856383
O           0.42653240710369    2.13471424764414    0.51946748616157
O          -0.83937812088657    0.22880630540629    1.29303667452195
O           1.14339170540724    0.89454531335653    2.46591681201143
H           1.37419032517332   -0.50081283685141    1.84084654094376
H          -1.27366451723372    0.56079166981487    0.47914558509746
O           1.63300561568031   -1.30783300630340    1.30053323790948
H           2.14516286305682   -1.86627956839892    1.88687118039823
O           0.16550937005658   -0.37521707756705   -2.39230630619062
H           0.06296118265357   -0.76816564561114   -3.25945044643641
O          -2.90319093381493   -1.18757994533007   -0.07516713341325
H          -2.90850799707514   -0.35366166890767   -0.55961145010902
H          -2.85522772476914   -0.95801797749389    0.85716194120072
O          -1.59151766500815    1.28019501820829   -1.01410310316830
H          -1.00050766123418    1.96467006408645   -0.65505948296878
H          -1.05304687086318    0.78871266681052   -1.66011081616362
O          -0.36428504025889   -2.10416170205269   -0.56006852864217
H          -1.29910925335837   -1.92157646231286   -0.33786226137835
H          -0.05369259641565   -1.10135849821366   -1.72500656062954
H           0.15755223626309   -1.86947858201500    0.22351883755483
N           2.00924959813405    0.52289479842323   -0.62059129243866
H           1.49216924500623    0.22710506706997   -1.46951387434315
H           2.06587101496423   -0.28166151413272    0.04148789659108
H           2.92629710326567    0.89318788204630   -0.84164382476017
H           1.38373186582371    1.28590205769920   -0.11189941295413
