    26
        -50.45971335  Gyration_radius:  2.45371199301 Dipole_moment: 7.641
 S          -1.79217839179709   -0.04868588519602    1.59743177064021
O          -2.21234465834339   -0.36018370875889    2.91993291568611
O          -0.59192632965258   -0.82302845241776    1.18302696328894
O          -1.51528523717185    1.38323975820805    1.36829903046209
O          -2.91053134705578   -0.45007864706716    0.59052094362805
H          -2.54914056807614   -0.18418712450710   -0.28645945356730
H           0.90661658783927   -0.53476625178682    1.48506439939352
O           1.86867777478054   -0.26803548449661    1.57424624954100
H           2.15370022170787   -0.59597139478958    2.42780505783941
O           0.83439083404964    1.20535470046880   -1.96403534404779
H           1.15067268534528    1.45147010793970   -2.83364816404635
O          -1.69511183962697   -0.01565342990446   -1.71003588644389
H          -0.93751871223648    0.58551493935543   -1.77600774423662
H          -1.31423808032387   -0.90987276430001   -1.70877587935110
O          -0.43712070885628   -2.32619004185553   -0.90832839462543
H          -0.54108215475342   -1.80773392351343   -0.06570829219277
H          -0.84030872253052   -3.18011572771662   -0.74957501317458
O           1.95403039636269   -1.00037059234712   -1.14734980804283
H           1.29537364649786    0.34869492088883   -1.72324537684388
H           2.12341581683299   -0.84269623034877   -0.20577609731093
H           1.21114632044475   -1.62840888214809   -1.17443705352278
N           0.79700407694074    2.02725896396443    0.61752498132417
H           1.02993520371525    2.97162855624296    0.90086939828478
H           0.83214578144285    1.91624191162995   -0.41211640819777
H           1.42182102488436    1.32415047559940    1.05213864939246
H          -0.24214362040287    1.76242423686020    0.94863855613176
