    26
        -50.46507308  Gyration_radius:  2.55420942144 Dipole_moment: 4.280
 S           0.62754501123385   -0.65063202311728   -0.42165427512878
O           1.44586738605620   -0.37103313735809    0.74995945040301
O           0.48813920359745   -2.07922721513216   -0.67830825869762
O          -0.70057033799057   -0.03635843859866   -0.28782748054540
O           1.30242406439137   -0.00846282700483   -1.66046766571941
O           1.26628869399833    3.54517475535296   -0.21686678695783
H           1.43212636317158    4.38949425202433   -0.63874731745585
O          -2.98160130774968   -1.36204218781412   -0.21834623236178
H          -3.26810721037769   -1.49217519453923   -1.12358963310941
H          -2.20247144311732   -0.76000918289090   -0.26695619783083
O           2.95241675975527    1.47397718562702   -0.43865147965571
H           2.74417333960393    0.91823062463567    0.32923194016000
H           2.03667154460703    0.59551504822410   -1.29383393094287
H           2.44709118428286    2.30822556718907   -0.30412656147127
O          -0.51903981546765    2.20174562098846   -1.69754914139562
H          -0.00403500379297    1.85314454362512   -2.43037887845119
H          -0.69755099611258    1.42322164992648   -1.12988631212881
H           0.52294003335604    3.12883774627410   -0.71073155555249
O          -0.39618902250452   -0.73479400810965    2.56269115439478
H           0.40009413687621   -0.57134325736314    2.00167802347071
H          -0.99418048111259   -0.01280570183985    2.35092527307769
H          -0.93460779347547   -2.08334146811046    1.86933366211325
N          -1.19479986137137   -2.79433878449527    1.12490052981621
H          -2.09052264803896   -2.47791034723465    0.68890362235193
H          -1.23339330445543   -3.74311927925496    1.47959494815300
H          -0.44870848555924   -2.65997394096214    0.36070311343487
