    26
        -50.46886215  Gyration_radius:  2.5087726264 Dipole_moment: 1.118
 S          -0.81644890330488    1.71523273325249    1.14988339115843
O          -2.08344536149822    1.05662901123187    1.29711989354939
O          -0.59850476738104    2.27785823548006   -0.18172550321604
O           0.31376580814161    0.86702185395180    1.53592673308725
O          -0.80260277644761    2.94186111893365    2.14802327735092
H           0.01011572146699    3.39115538644171    1.93716875352965
H           0.13964475107034   -0.73311432623298    1.63091851759782
O           0.01237312400510   -1.71532823344737    1.65453492187996
H           0.09374811284620   -1.96731545299356    2.57562786522435
O           1.59026733323222   -0.53863872190662   -2.01206677415743
H           1.98049324206206    0.19150104591371   -1.48252711707346
O          -2.16571298932169   -1.27705225465927    0.04439361022456
H          -1.48817079082325   -1.71197621463416    0.58762833414220
H          -2.38523177656892   -0.46842114549326    0.55179205309125
O           2.05405552929927    1.53793158435806   -0.37028010943478
H           1.43093174669394    2.18358596534255   -0.72181301925721
H           1.60315338760752    1.19495326771411    0.42431679932087
O           1.58642681858098   -2.67388243141243   -0.35377067526916
H           1.15770772013723   -3.48482087753341   -0.63048313613382
H           1.72035991057134   -1.34747065061843   -1.47681567354441
H           1.08686325461143   -2.34184197742875    0.41647856625487
N          -0.89925567756034    0.17766537243305   -1.76522072920916
H           0.11033300110872   -0.17104958031450   -1.94291824268952
H          -1.42883391728079   -0.51003968535448   -1.15415884311777
H          -0.83363508475060    1.07576304217249   -1.22133559282973
H          -1.38839743649775    0.32979291480169   -2.64069732046974
