    26
        -50.46886249  Gyration_radius:  2.50851756968 Dipole_moment: 1.121
 S          -1.72379143820589   -1.23028344499938    0.66599377382387
O          -2.16211301256614   -1.40617176644266   -0.68962053821600
O          -2.02333277899830    0.09236694560100    1.21206875905592
O          -0.30626760664569   -1.54972040360980    0.85190431717490
O          -2.52352354828651   -2.26185432715627    1.55883626371309
H          -2.25570346292246   -2.04304051068332    2.44608164682691
H           0.68696518311071   -1.60222075069352   -0.41671628210765
O           1.41544754949503    2.08785940907068    0.71209507552887
H           1.21004985150881    1.55327938770425    1.51073096686831
O           1.28153726261224   -1.60120181018172   -1.20926324265065
H           1.55981209698091   -2.51054610089470   -1.32833080473696
O          -0.65634941672312   -0.08869841002721   -2.42780734361453
H           0.15737792346060   -0.59249619397969   -2.26236994025536
H          -1.35292320104901   -0.62747197058928   -1.99902070866851
O           0.37781423228614    0.40513073972942    2.53271445826693
H          -0.53592921990770    0.71089091663598    2.55425313354126
H           0.33625064868889   -0.39726091050406    1.97908712408140
O           2.98165777938003    0.49078366049784   -0.80663183501591
H           2.42862434960285   -0.30657533190089   -0.91387245076875
H           3.22995515818065    0.77356331447143   -1.68770911047765
H           2.09840122132769    1.58130583860359    0.22785484523302
N          -0.85185074419757    1.72446775013985   -0.51216404892411
H          -1.35052420590438    2.57539554862895   -0.74900868787888
H          -0.72171455916416    1.11439629456254   -1.37096281353613
H           0.10471739207785    1.95115521908698   -0.05810593240897
H          -1.40458747412894    1.15694690690393    0.17996338516872
