    26
        -50.46765645  Gyration_radius:  2.55067390832 Dipole_moment: 1.861
 S          -2.06549077359341    0.19447591296493    0.55547278427985
O          -1.87805377815374    0.81656245971399   -0.74852362648651
O          -0.83791987412478    0.27933152381994    1.35043374940056
O          -2.62759935512497   -1.12485861262501    0.50274681506393
O          -3.11468048998811    1.10209561985425    1.33471811651706
H          -3.94169859795497    0.66160282661232    1.16616484673971
H          -1.09113410427250   -2.64105557207291    0.93583427343752
O           2.33138897074257   -0.14419001171074   -1.01087044312920
H           2.59669889760475   -0.84251052949605   -0.37836230095372
O          -0.20572030207941   -2.26690714635797    0.99458865252078
H          -0.36592146038399   -1.34894592571631    1.29164227947557
O           2.54750609174154   -2.18758182464024    0.75404378985507
H           2.83779370454191   -3.03837604320208    0.42141656472359
H           1.60049402869147   -2.28076049728702    0.94988425589389
O          -0.46216517751820    2.94230245447430   -1.35423660184620
H          -1.11200568790209    2.23339151676830   -1.13713150230845
H          -0.29610946826282    2.85842878296040   -2.29536657599777
O          -0.10861452281897   -1.07005608580594   -1.53374569945394
H          -0.81172019391248   -0.41401074222107   -1.39791495068139
H           1.49790747962524   -0.48644716494775   -1.41090850268644
H          -0.17503092505488   -1.68307276796872   -0.78398822358328
N           1.15620082065296    1.70851832957766    0.37466044606448
H           1.74609009924851    0.98876670057935   -0.18151986156952
H           0.67644516452385    2.34957326964189   -0.30276786473778
H           0.38769064260654    1.17284920782257    0.85705937081326
H           1.71564880137015    2.22087429921950    1.04667019867315
