    26
        -50.46765651  Gyration_radius:  2.55065971066 Dipole_moment: 1.863
 S           1.45774979651443   -1.57614955955286    0.05926465948326
O           1.13226353303235   -0.52286634923937    1.02394326146067
O           1.38573453438310   -1.06619391723731   -1.30363324112270
O           0.73076207386552   -2.79530069467107    0.27029253751632
O           2.98993442712003   -1.91054304181173    0.32852721183296
H           3.04266293438035   -2.83915875408740    0.12585420483055
H          -1.11475459813711   -2.41198739985132    1.40751224658694
O          -1.71912483642609    1.82170081823700   -0.44802086072842
H          -2.18153437973858    1.63711704506068    0.39472138190304
O          -1.28653526808556   -1.47264105233572    1.53214602695338
H          -0.39322379726497   -1.07467648295030    1.52112746977721
O           2.04138874682306    1.31542086769608   -2.19157543603591
H           1.56240862319676    1.40201390504692   -3.01827799957355
H           1.92399724814590    0.37603237815169   -1.91634974893251
O          -2.79892421780991    0.82321808868647    1.82660635720269
H          -2.29053499472992   -0.00434630374656    1.85004617752773
H          -3.72323427609872    0.57004687487369    1.81043899757985
O          -1.28939220085366   -0.70677478225369   -1.15987099824905
H          -1.66826516068416    0.94289512012460   -0.89175593721822
H          -0.35880101034695   -0.90387843968344   -1.35580650627274
H          -1.46598778133635   -1.11326969179964   -0.29618043959916
N           0.81510040255235    1.92983557038825    0.09927905089369
H          -0.24770826926350    1.99694860665357   -0.10361064994434
H           1.33333435231600    1.90593182186698   -0.81232963055872
H           1.13690716127321    2.68302378748258    0.69613482764511
H           0.98577696715074    0.99360157495326    0.55151705704591
