    26
        -50.46854426  Gyration_radius:  2.52430574431 Dipole_moment: 1.501
 S           0.56594092467437    1.54387091123976   -0.90172040370359
O          -0.58753745207030    1.67695586306044   -0.03185461334998
O           0.74037512119591    0.16595170654399   -1.34767939766847
O           1.78709151995237    2.09135571006988   -0.35142563053290
O           0.22877237004495    2.39784830734713   -2.19156139657086
H           1.06277274995109    2.41347926458803   -2.64873412182732
H           2.19895707541671    1.16678771556267    0.90961630318249
O           2.38771279687045    0.57467231411332    1.67972150385931
H           3.10320489204051    0.99114323179031    2.16349636956223
O          -2.79134316986335   -2.09968083031627   -0.61521301243090
H          -2.88261819427573   -2.52955773465885   -1.46682541164375
O           2.31995872387452   -1.75685801873753    0.12541339881674
H           2.10358042987718   -1.23837892536545   -0.65956505818821
H           2.51877717069274   -1.09364244248728    0.80389975153934
O          -0.28099444522832    0.32082037891219    2.27487030447654
H           0.68712766083957    0.38898286453032    2.34047180211045
H          -0.52948622055377    0.99034933179655    1.61208613749458
O          -2.71180368318238    0.53209778417861   -1.11236998164013
H          -1.90228547643936    0.96058150128200   -0.75862470701364
H          -2.86998059939302   -1.13442208506838   -0.78984478127970
H          -3.43806241516982    1.10317207908491   -0.85621305310944
N          -0.35935453674136   -1.52496885844816    0.37363351676898
H          -0.45449026290100   -0.94112871406465    1.24957365071612
H           0.43175465876747   -2.17308633702719    0.47770761096781
H          -1.26315771198475   -1.96801468404802    0.10620754563895
H          -0.06491192638869   -0.85833034388840   -0.38506632606075
