    26
        -50.46854460  Gyration_radius:  2.52481040741 Dipole_moment: 1.482
 S          -1.19794891561016    1.13300933587054    0.89503219776880
O          -0.78035079205967   -0.06758659244030    1.59448417383179
O          -1.06582571205961    0.98039551569027   -0.54969065894267
O          -0.56382533087421    2.34385887656967    1.37005625135247
O          -2.74484680391275    1.28622199567450    1.19479047523219
H          -2.93058518269567    2.15854376565770    0.86420519243397
H           1.00325117196310    2.24822976736259    0.98240016018878
O           1.95276908755161    2.12273483561682    0.73353237049869
H           2.43430182675892    2.83070717869519    1.16508081590044
O          -0.57263520942128   -3.12422215129247   -1.57916388567744
H          -1.21164243735467   -3.18562679595486   -2.29072245328036
O           1.84560722512925   -0.56819456381201    1.26976498277273
H           2.14510040595406    0.35176341586220    1.16889472923257
H           0.94872373211140   -0.49464324400835    1.64332352009803
O           1.36014922186617    1.66299420142739   -1.96749181294833
H           0.41596231052291    1.74416496588724   -1.78372656662791
H           1.78958555769637    1.92194265975244   -1.13797517591613
O          -1.91572053959185   -2.21704699786582    0.55444200444950
H          -2.07319790681818   -2.78370041491225    1.31160367445020
H          -1.53335239526561   -1.38963419697990    0.91966938244701
H          -1.08762413146351   -2.89401562333949   -0.77275032197789
N           0.77112343538649   -0.83899271480988   -1.13844342009769
H           1.30767777664129   -0.29710180782943   -1.82775240353262
H           0.44169980440272   -1.77094992999845   -1.46647263452561
H           1.32439040548330   -0.91393588855325   -0.24091518718597
H          -0.06278659437556   -0.23891560203517   -0.91217540007152
