    26
        -50.46765459  Gyration_radius:  2.5511152156 Dipole_moment: 1.880
 S          -1.47625797179454    0.47728741832703    1.48659663817707
O          -0.04643941031166    0.78872001871926    1.40918851012215
O          -1.73660602616876   -0.86433937033560    0.98267723595850
O          -2.31720084150983    1.49407041137408    0.92202728502437
O          -1.80066283758141    0.43934504618181    3.04392321373928
H          -2.67612764039888    0.81087860564635    3.08460163925791
H          -1.19367842951692    2.70330246481916   -0.53357722653517
O          -0.31268713469146    2.35531669160652   -0.70738299682109
H          -0.08352101808756    1.89224573667772    0.12312349372444
O           1.51623839601273   -0.85036739214569   -1.86093164913461
H           1.84851922946656    0.05180007653507   -2.04440625140923
O          -0.25626379522343   -3.01611318617170    1.24498609677740
H          -0.55527639228356   -3.59901262251264    0.54413704463742
H          -0.89660489771634   -2.26662704399802    1.25568185262681
O           1.96726585521601    1.80282950811566   -2.17208603966126
H           1.21707788710158    2.11698892877444   -1.64071382812112
H           1.85198997867210    2.17707518894358   -3.04698650567468
O          -1.04756201491720   -0.20898132874388   -1.54785673154046
H          -1.42338921035296   -0.51852639077372   -0.70746614358555
H          -0.92435248386859    0.74814489828568   -1.44131284717260
H           0.53555310009642   -0.75869392153365   -1.90394831439282
N           1.59108511143373   -1.16219290332165    0.71423786189095
H           1.66771235912047   -1.06954796719247   -0.36314296990502
H           2.50072861094433   -1.16781194566799    1.16101703746117
H           1.01087891378710   -0.35124150866350    1.05505171161015
H           1.03958068255992   -2.02454942296013    0.94256186295911
