    26
        -50.46765454  Gyration_radius:  2.55096826013 Dipole_moment: 1.880
 S           1.30065482111843    0.95689418777365    1.41798371476797
O           1.57057868998067    0.37290759743004    0.10126850683564
O           0.32267180357372    0.15694196868203    2.14277590333205
O           1.00057281804491    2.35960801699601    1.37373525808623
O           2.67071371597394    0.81533155261106    2.21463964271045
H           2.69664388265440    1.61540145414575    2.72979922735694
H           0.26118377699433    2.92633115976509   -0.62135227457252
O           0.12062744927455    2.16681905190101   -1.19650497691094
H           0.76244720173273    1.50796144326634   -0.86362125984259
O          -1.76982936876591   -1.20055323589784   -1.38113288656834
H          -1.57063100740444   -0.65452142882282   -2.16856671730852
O          -1.05681275550933    0.67268660206037   -3.20398108913909
H          -0.57749157236808    1.25849413192856   -2.59501522071691
H          -1.75231405228040    1.20346084577445   -3.59553330246974
O           0.05293728550400   -2.45404542336411    2.16388972288239
H          -0.84646918304144   -2.59906503690250    2.46447634588679
H           0.22079242631963   -1.49075316514188    2.28952849967242
O          -1.67221991997566    0.75539107824475    0.42025475788648
H          -1.21883288677045    1.41182410498045   -0.13304416382254
H          -1.93585672377177   -0.54122699082263   -0.66704570056332
H          -1.06547752513013    0.57114721892032    1.15604456290363
N           0.51078132347224   -1.98730525697078   -0.42509095163891
H          -0.43910302776440   -1.75115353687185   -0.89110370915920
H           1.01531869601739   -1.07552329400512   -0.26859616893792
H           0.33115023326100   -2.38244746505039    0.52974222036152
H           1.06796387882418   -2.61460560066506   -0.99354994104642
