    26
        -50.45954217  Gyration_radius:  2.65260736072 Dipole_moment: 3.131
 S          -2.33748801596350    0.00648861072710    1.05677563310874
O          -2.66532140767357   -0.50041196611176   -0.27114699817028
O          -1.88023614077393    1.37416620070778    1.04269429315569
O          -1.41014881170801   -0.88552442582774    1.75135814659728
O          -3.69138239319066   -0.02234336157963    1.88535680654638
H          -4.06329974980917   -0.87606931907847    1.68393260021680
H          -0.09294751144447   -1.51301863396523    1.09557474869596
O           1.16549330126879    1.86303032476490    0.00055910783069
H           0.93977977352838    2.79116486515250   -0.07570045480873
O           0.66984554863233   -1.85323278012168    0.55469043671390
H           0.56148353352594   -2.80469541893941    0.51958657363931
O           2.73036316134258   -0.32222115676118   -0.82316774617152
H           2.44463681523849    0.55206673339136   -0.52147990213744
H           2.32201327911670   -0.95004245213377   -0.21464693152416
O           1.48921455449300   -0.45266532852832   -3.23213474327551
H           2.07605318619652   -0.46980693158672   -2.44489051290150
H           2.02943473370847   -0.17076602400344   -3.96987684398499
O           0.34184705716771    1.25095301372906    2.41472877495670
H           0.31899093250752    0.32178567391455    2.66052204145827
H           0.97361388721609    1.62646083617242    0.94781351957216
H          -0.55919164338000    1.42317432888089    2.06238457276488
N          -0.28975576255244   -0.06596764443417   -1.25067546469640
H           0.09590659212521    0.81158695445170   -0.83687954374646
H           0.15955683228291   -0.85131677965909   -0.73252301564727
H          -1.32366377302311   -0.14925024973449   -1.06446949614166
H          -0.00479798882838   -0.13354506941921   -2.23838561205475
