    26
        -50.46651514  Gyration_radius:  2.52843639412 Dipole_moment: 2.400
 S           1.09529538671993   -1.45875900204747   -1.31620707993453
O           1.96173796814093   -1.88982384303065   -0.25100617874296
O           1.07587759606352    0.00867071508621   -1.41978653197500
O          -0.25036844858982   -1.99791792412888   -1.25574166599099
O           1.69456979539202   -1.98484143434666   -2.68314083937848
H           0.90268703708028   -2.10940035034989   -3.19681036699394
H          -0.99986917075130   -1.65085545965076    0.10316629896890
O          -1.41604869318757   -1.42409687678388    0.97718923988905
H          -2.09028249637149   -2.08976447689365    1.12453571345019
O          -0.60317007154222    2.70382433001083    1.37353292881230
H          -0.93416537472599    2.82796929720618    2.26407512211938
O           1.04234360594822   -1.21340386042386    2.14191092833804
H           0.09275644849730   -1.34093199206495    1.96324119512673
H           1.49368936617309   -1.66347415855778    1.39761321855157
O          -1.22821233900268    0.99932360120263   -2.27965307245353
H          -0.39169579429707    0.56916963122449   -2.00399582401666
H          -0.98577278690535    1.86296434595432   -2.61848817282123
O          -2.27826732857302    1.09062667496721    0.21853581406835
H          -2.05272691214188    0.20566625405335    0.55446440910487
H          -1.29880163503686    2.15820853418925    0.90018173229280
H          -2.05348695821465    1.06526185222150   -0.73359058711254
N           1.45925606077597    1.08672978519976    0.95621047347910
H           0.69266566720622    1.79077427098868    1.14642341789374
H           2.37678671135570    1.49813185899210    1.08653029867169
H           1.33250318978477    0.22874795664123    1.58228060054536
H           1.36269917629924    0.72720026091509   -0.03147105174384
