    26
        -50.46852622  Gyration_radius:  2.47281087214 Dipole_moment: 5.585
 S          -1.43092462489122    0.85293084560380    0.54377894809138
O          -0.25078490789668    1.60997989851723    0.11363592925957
O          -1.70008458644130    0.93900907388727    1.94420522151327
O          -1.32611776106686   -0.53129616685181    0.06078286431351
O          -2.65440540108692    1.47041027804546   -0.23541091051209
H          -2.42254044945181    1.33280365140754   -1.15850327023734
H          -1.05219190154810   -1.78100749276284    1.19951475879403
O           2.08553806835449    0.61479393364476    1.00003670286776
H           1.40764072831374    1.24526985533491    0.69662756928862
O          -0.68771304556703   -2.42865747187315    1.83529108008318
H          -1.42121184481985   -2.69291862172261    2.39272226077563
O           1.23426757559054   -0.19208105723884   -3.08613086590530
H           1.94130353087735    0.41484648151843   -3.31224867749510
H           0.42964803917422    0.35150467422105   -2.95481890979962
O          -0.77915195592122    1.49896020139058   -2.37669624689591
H          -0.48221829076092    1.57686253387095   -1.43004764128723
H          -0.76760644193236    2.38900169957007   -2.73543171345520
O           0.54229066296916   -0.23326920315589    2.96377562994741
H           1.72981169004995    0.31185548258656    1.87098630779582
H          -0.24705073365225    0.30950109625672    2.79646234240589
H           0.27330596923728   -1.13940960210747    2.73316066736787
N           1.13477296720602   -1.21173370580311   -0.58364614029469
H           1.68157114747584   -0.53503054757228    0.05764975697087
H           0.11874744296747   -1.00646532095596   -0.38595609101290
H           1.30834330570067   -0.98391560799074   -1.58508325317641
H           1.33476082695324   -2.18194490766877   -0.36465630941266
