    26
        -50.45798170  Gyration_radius:  2.7480316884 Dipole_moment: 2.197
 S           1.65905242142366   -1.66699387655357   -1.52782787502432
O           0.39776149816276   -1.56452941121627   -2.22456783358533
O           1.49766993665801   -2.22300968099052   -0.18173874782768
O           2.42153336731402   -0.42858066790719   -1.49951716677041
O           2.54838786094551   -2.70802011126851   -2.32857159816761
H           3.38847314997827   -2.61859104273376   -1.88992007269880
H           1.67228923913298    0.84127908655036   -0.92114358054778
O          -0.40477499842075   -0.07384311442478    2.98593808815003
H           0.45754388663813   -0.18899919623886    3.38806548550165
O           1.12161587285043    1.62765322562781   -0.65268846871993
H           1.46479734199492    2.36658802969232   -1.15819561085134
O          -1.13910050127135    0.31318580048819   -1.26352363393923
H          -0.72324744255813   -0.36359506972023   -1.84383597629042
H          -0.39992060715725    0.93173005627526   -1.08047147168164
O          -2.66342295215881    2.11472459538165    0.20131729849041
H          -3.55720968703557    1.83833378543641    0.40605758159312
H          -2.32746292291478    1.51375835119439   -0.48050578601324
O          -0.31440848132104    2.18541976418767    1.67299321460284
H           0.30249932076507    2.04403755251514    0.93712885349081
H          -1.18258225346306    2.32651992407862    1.25924751936380
H          -0.40032300970514    0.83951317707982    2.58584741993460
N          -0.78394614773945   -1.42993208728826    0.73505505252953
H          -1.07182872279917   -0.71787193333010    0.01285027792198
H          -1.46397536611042   -2.17999672847312    0.79145486416668
H           0.15878203534185   -1.81889337225995    0.40199509760950
H          -0.65820281855812   -0.95988701610578    1.67455703876421
