    26
        -50.46854449  Gyration_radius:  2.52462542562 Dipole_moment: 1.489
 S           1.08362997655779    0.94750904874766   -1.20282996924250
O           0.64125669030429   -0.43588736440312   -1.33935366797286
O           1.13930784538649    1.35050933899736    0.18979575092175
O           0.32251144493636    1.84317489388516   -2.04686045031311
O           2.57831300916375    0.99835690928441   -1.72244610251914
H           2.47039040018620    0.89178625921082   -2.66146829715613
H          -1.22550371221634    1.72790719357249   -1.59357603211193
O           0.87796314782752   -2.45669987028429    2.40340510326204
H           1.31844022020743   -3.25964984490534    2.12120922107597
O          -2.15118811247194    1.62602668891804   -1.25896245444342
H          -2.66374841165746    2.31392355258838   -1.68729481354009
O          -2.14757789307454   -1.15745936437200   -1.59162689833429
H          -2.40883470270511   -0.22613006788041   -1.52809254896386
H          -1.23251274117538   -1.12891078791514   -1.89767553778596
O          -1.29683035952542    1.36960760473845    1.33801855901465
H          -0.37810148926023    1.58441456176775    1.09494678154003
H          -1.81619879537017    1.58159735876003    0.54332928020620
O           2.45436829515900   -0.43099324912588    1.63499097131272
H           1.50697649129826   -1.72338339441159    2.21620886989893
H           1.99068652349381    0.21192641264078    1.05554704746118
H           2.92362634056572    0.09809894567976    2.28237790158281
N          -0.81019967128170   -1.17012668038219    0.75485303788860
H          -1.60938267169724   -1.57663050389441    0.25214073310650
H          -0.10899358025460   -0.93803897212991    0.00573865033539
H          -1.09461435285133   -0.24513367334352    1.18001953905361
H          -0.36378388153359   -1.79579498580658    1.45760530575299
