    26
        -50.47250313  Gyration_radius:  2.48726208093 Dipole_moment: 2.881
 S          -2.17704248702104   -0.51412372402567    0.37385018975108
O          -2.37866029660158    0.09624118586131   -0.93458261116419
O          -1.21549215413274    0.22104438533857    1.17296698684020
O          -1.88294764584645   -1.93092642164103    0.27411163646395
O          -3.56048002870469   -0.40402993123396    1.13798524963058
H          -4.09037564691591   -1.02196788762715    0.64629649848271
H          -0.41652156785136   -2.21611983944335   -0.28035518627792
O           0.26098784216685    2.44694304570524    0.77950034528617
H          -0.35272852307205    1.78433093803858    1.14691694133920
O           0.52113678893841   -2.37489693015199   -0.56641612903639
H           0.53190495988235   -3.24812001909216   -0.96105206285076
O           1.70250039016564   -0.15304702712151   -1.63304512934986
H           1.31686855779771   -0.99929682758765   -1.33708318850006
H           2.16158158286609    0.20683596909301   -0.85272735363395
O           2.49678404946597    0.83513842383306    0.81188738491817
H           1.98652390286232    0.10756372948731    1.27318558602009
H           3.32520266800068    0.92540368951223    1.28307187983445
O           1.03287626492342   -1.06127716879599    1.83423204584998
H           1.14505861884550    2.04842004683002    0.87811184839294
H           0.15573606768031   -0.63411870105352    1.76115004269027
H           1.02769595495790   -1.74158581159257    1.14490538505639
N          -0.32103550759916    1.54317770757013   -1.61882044023549
H           0.48423121981267    0.86804049667690   -1.77495788727803
H          -1.19404977614709    0.97729828369471   -1.40960255580572
H          -0.09587878019239    2.08822913696596   -0.73246391236818
H          -0.46387647428716    2.15084325075739   -2.41706555405284
