    26
        -50.46852629  Gyration_radius:  2.47293255301 Dipole_moment: 5.592
 S          -1.44400982263268   -0.62676204168992    0.76719782776476
O          -2.24636101873859   -1.57981424613813    0.06804085030802
O          -1.45773199988048    0.71538682395574    0.17608489001783
O          -0.05332656324848   -1.06664401057704    0.94859814291757
O          -2.02015584468176   -0.46788434979128    2.22612196946733
H          -1.40555334411201    0.14382894503057    2.64201572246092
H           0.54085986985984   -2.33034462402905   -0.04296270613617
O           0.90437323952010   -2.89281075358921   -0.75566931841324
H           0.60228638819290   -3.78306349630388   -0.56915472153382
O          -0.23145560532998    0.88630900072803   -2.21091734578872
H          -0.84554338701122    1.05991069826122   -1.47467829710485
O           1.99736597501955    2.44607010339280    1.05734202529364
H           1.21061054350314    2.23737451578281    1.60276922811753
H           1.85398227234960    3.32107806024507    0.69231236736404
O          -0.41580885424388    1.88201632278361    2.18768814598859
H          -0.80740765594681    1.51202737089150    1.35102492270436
H          -0.97742372807672    2.61654089992311    2.44461447922816
O          -0.97106782239259   -1.64226299953921   -2.34328417668966
H          -1.61497615084021   -1.66163417848966   -1.61491733494724
H          -0.50441285268255   -0.01279198359004   -2.51725286380924
H          -0.21906952379092   -2.17001205899157   -2.02274604283916
N           1.65567665670404    0.28402489635784   -0.53077494518389
H           1.98609557615215    1.11969515110665   -0.00417536667103
H           0.99922978890070    0.58086606533456   -1.33665062746512
H           2.42031005934316   -0.29482736383501   -0.86169155745161
H           1.04351381406736   -0.27627673722397    0.12106472240482
