    26
        -50.46825962  Gyration_radius:  2.51158056523 Dipole_moment: 5.424
 S           0.82775128465873   -0.66773781248840    0.51213329479871
O           1.06152295347485   -0.37787937291588   -0.92100219443951
O          -0.26746996760225   -1.59415561021628    0.66800273141901
O           0.60251679801898    0.58439158678631    1.23507802230228
O           2.09960577014348   -1.34407981232375    1.06378479764504
H           2.87348157057100   -0.73050828036391    0.93369265982442
H          -0.75995451490671    1.28727631719447    0.82170319072447
O          -2.57448619509015   -2.11664704674588   -0.75397642890899
H          -1.75693636568107   -2.51151511182459   -0.41868380088689
O          -1.58922846961391    1.69448533286319    0.44627296557293
H          -1.51481647870397    2.63798738984920    0.59816416285526
O           4.06163583786292    0.28688855232224    0.52878156121422
H           3.54356449500788    1.05372278397810    0.18039021804682
H           4.56535035327883   -0.06333782373495   -0.20881176314463
O           2.22461383555945    1.94149241594951   -0.41330492284364
H           1.71941265696723    1.92637394144587    0.41325972626004
H           1.86005542741692    1.17294404148208   -0.89258820665992
O          -2.70456167524658   -0.71521076929605    1.51111840254228
H          -1.79051917753550   -1.05077035149269    1.50343411258280
H          -2.62536193235160    0.23265988393857    1.35431956136896
H          -2.96160264249793   -1.70712057036555    0.05206879406810
N          -1.39123332577093    0.02534978868556   -1.67309646481047
H          -1.55557128335148    0.29697459584470   -2.63660949079207
H          -1.94306870532293   -0.86172275169507   -1.40252763160392
H          -0.36064103390913   -0.18487904809982   -1.49267116017616
H          -1.64405922538833    0.78501772123533   -1.00893212698931
