    26
        -50.46852639  Gyration_radius:  2.47304422496 Dipole_moment: 5.589
 S           0.19291637791610    0.88232202318379    1.49894088243329
O          -0.05820609541511    2.28865623643058    1.51508353993980
O           1.37642108793355    0.49494617393388    0.72422411203981
O          -0.96403679950658    0.09507931938341    1.04954450589505
O           0.46468217177008    0.40967103075990    2.97819976353018
H           0.57234894093020   -0.54201710181564    2.89082039888900
H          -2.21125424283549    0.89480077561872    0.19048242164316
O          -2.78894316119505    1.32972822012538   -0.46794486255496
H          -3.37302888331122    1.90260539320460    0.03128854650044
O           1.12686182504280    0.85722162881726   -1.92866661741027
H           1.52094928372342    0.78311561541475   -1.04069538205093
O           1.50802419470157   -1.87771801603084    1.64415258804419
H           2.39229022033875   -2.02918084342713    1.98486622364735
H           1.52472115421345   -0.97919969674868    1.21671502164348
O           0.77572570972943   -3.17661506544862   -0.63429439849940
H           1.62067174149642   -3.34627449306276   -1.05467901016383
H           0.97251626852847   -2.83387729707540    0.26233504990669
O          -0.52389828897460    2.75393744362772   -1.13243315745242
H           0.57671897746626    1.67527718317404   -1.85751664701850
H          -1.41529245682680    2.36386595700889   -1.12658085768019
H          -0.27058798249739    2.80519903970929   -0.19498615831938
N          -0.62115841217872   -0.96962816393028   -1.33438187002933
H          -1.48126748957567   -0.99848930422815   -1.87155875030713
H          -0.18043691096673   -1.90824131584000   -1.23546620368012
H           0.08551066438972   -0.26245639131954   -1.74555338629236
H          -0.82224790496182   -0.61272833141687   -0.36189578262680
