    26
        -50.46105803  Gyration_radius:  2.61942919279 Dipole_moment: 2.976
 S          -0.13250162890293   -1.81113165915536    1.32917537203580
O           1.07856119651938   -1.74309674330586    0.53479360627462
O          -1.34061551149259   -1.87902689543502    0.51239705088340
O          -0.22238786623960   -0.76637556341932    2.33232264944253
O          -0.05714525952472   -3.18512668049619    2.12230829021635
H          -0.75796464525979   -3.10000278093391    2.76111927834421
H           0.88500613141419    0.35147961801513    1.87000078405013
O           1.56400395554232    0.76146460722602    1.27995039804271
H           1.99476883812706   -0.02349608545754    0.91357252434533
O           0.28448234476609    0.19855675927773   -2.94236174423887
H           1.12487253734367    0.15111988209454   -3.39986261268132
O           1.19948328999355    3.54046729905720    0.67472120831364
H           1.53772384914181    2.71930715859983    1.05948631839008
H           1.29233350497902    4.21535194126669    1.34783058157337
O          -2.46204374659889    0.42248610987309    0.03242535030801
H          -3.10310110376831    0.20349045627215   -0.64674596896861
H          -2.08053837119620   -0.44076004550106    0.32976795553296
O          -0.02108682066840   -2.15509415402309   -1.81927645383574
H          -0.85001603457638   -2.22432754574826   -1.32486187471349
H           0.11350557655869   -0.71954720539356   -2.59605104379277
H           0.63020998737058   -2.10889959804191   -1.09199264835014
N          -0.14006608330835    1.53204040973348   -0.67031176595579
H           0.53614404255009    1.15860326267146    0.04419236702150
H          -1.10707861274108    1.22673131869262   -0.39113793800289
H          -0.04196793038254    2.54809336462554   -0.64626805769163
H           0.07541837035836    1.12769276954083   -1.61519365653667
