    26
        -50.46825965  Gyration_radius:  2.51161769368 Dipole_moment: 5.424
 S          -0.23522123139938   -1.07289765050028   -0.43236959123788
O           0.72067692549918   -0.27517232047959   -1.23390722138268
O          -1.56899458747663   -0.53643394850187   -0.55605067188540
O           0.21527736701693   -1.12464593192220    0.95883458102510
O          -0.24679655051671   -2.50326043346436   -1.00979875685625
H           0.67524778294069   -2.87738317583532   -0.96303089626446
H           0.13493311550707    0.28978471052659    1.67574434028209
O          -2.60679293110169    1.98873198605383   -0.96244917123005
H          -2.57748612234684    1.08933565196295   -1.31875944064229
O           0.12508525723103    1.22590654595565    2.01936984141632
H           0.77011903219203    1.25625214237239    2.72776083676594
O           2.79370293235714   -1.01606747657773    0.23011693046872
H           2.25258864549268   -0.58743661660630   -0.46038100210167
H           2.14481902070201   -1.17111719166054    0.93262957376333
O           2.23307802612955   -3.30598985784887   -0.97070937413766
H           2.58366686400107   -3.27744699216827   -1.86329645753228
H           2.64001946977215   -2.54921185936592   -0.48133108885223
O          -2.66572915906625    0.90991792963105    1.47565527831925
H          -1.88130547663285    1.13463330356995    1.98898122050903
H          -2.88045922501394    1.84133103898722   -0.02935419236756
H          -2.39223902361168    0.16931413094709    0.90569838434486
N          -0.03120312952877    2.10946187551285   -0.53244128645471
H           0.07952930393060    2.02033973466274    0.49806576617367
H          -1.08448433210096    2.17595719160161   -0.75768387254967
H           0.48745161840613    2.89993567485798   -0.90028653159213
H           0.31451640762271    1.18616153828957   -0.94100720797404
