    26
        -50.46052468  Gyration_radius:  2.47297714614 Dipole_moment: 8.502
 S           0.59028408288416    2.08668081707572    0.64856936841994
O           0.08394889552778    2.47673596131175    1.93196636592169
O          -0.45204539359465    1.63273070283179   -0.28912934272321
O           1.70385532530901    1.16297620941442    0.65157054562108
O           1.15165482086840    3.43030864310471   -0.01451453528420
H           0.78491089055503    4.09552465451570    0.55921532839815
H           2.16215195754063   -0.12964575028672   -0.10032035137170
O           2.36402438916127   -0.92970217522347   -0.66052995983217
H           3.31917244227792   -0.97962671712153   -0.71365975407757
O          -1.51341986089856   -2.06452970134496   -0.93268756016992
H          -1.86451199230576   -2.93549761923239   -1.11860399933597
O          -0.61450574976601   -0.11817367328047    2.25661389992570
H          -0.28718578818701    0.79167149648664    2.30326284943162
H          -1.50661817698818   -0.05313284823208    1.86683353550035
O          -2.66673733797827    0.17673702756373    0.45746405407726
H          -2.03481799073848    0.84828252688785    0.15667889701568
H          -2.47561300591049   -0.61941289661353   -0.05582606142688
O           0.31909524834720   -2.18678705519907    0.87187873095392
H           1.14501538840677   -1.88549517908839    0.47079781729112
H           0.05203026955777   -1.47600356230717    1.50022841149604
H          -0.85217655800875   -2.17936047323510   -0.17696107283088
N           0.12214746476289   -0.23457576389255   -1.95797465882106
H           1.06544559332897   -0.57952269131883   -1.68519673733325
H           0.08708304144180    0.06169595177524   -2.92663208971528
H          -0.58042093059121   -0.98415314550555   -1.75045813857719
H          -0.10276702500197    0.59227526091438   -1.29258554255414
