    26
        -50.47114545  Gyration_radius:  2.41071200453 Dipole_moment: 3.629
 S          -1.44588099074799   -0.64732734895077    1.22955596081874
O          -1.98547904520367   -0.78501642625805   -0.11327539081654
O          -1.17385118958986    0.73121229286156    1.60114950465471
O          -0.30211663853202   -1.51461931844662    1.45381935336673
O          -2.58626086175029   -1.13606132480646    2.21383242911984
H          -2.78525982732927   -2.00355650203705    1.87832145173681
H           1.24858112459769   -0.42560832162754    2.49815178783348
O           0.43767426703973    1.66687450791989   -1.85226313260391
H           0.53072922812802    2.41668280531150   -2.44098052174202
O           1.31451045439528    0.52331658891929    2.33667021762052
H           0.37726815311630    0.77768997520125    2.17810435768343
O           1.44260966509087   -1.97722031678774   -0.49898519270169
H           0.85359346104578   -1.85414472432170   -1.28124863997551
H           0.82523925865037   -1.99243325220681    0.26316377256768
O          -0.33907814637669   -1.07271054373860   -2.22664513243823
H          -0.07719142744653   -0.15042111398245   -2.34963860104949
H          -1.03428971841954   -1.05877734165138   -1.54130835904993
O          -1.87655471644454    1.81803299181338   -0.67930972811706
H          -0.45242567392356    1.77887722960876   -1.40313831685456
H          -2.23640251617929    0.93098849213059   -0.83993935628288
H          -1.65153241712200    1.76483155915779    0.26812130006681
N           2.20670247020529    0.46572916262174   -0.14749614312771
H           1.60037847342271    1.02589796887546   -0.77760443376327
H           2.00392553175651   -0.58875493397353   -0.34516044016238
H           3.18466175440398    0.69072263154804   -0.29048864444604
H           1.92044932722764    0.61579526239543    0.86659190772160
