    26
        -50.47301018  Gyration_radius:  2.48568658963 Dipole_moment: 3.134
 S          -0.85066769622831    1.71790117092007    0.64521650977552
O          -0.96380103960374    0.64292868194485    1.62052388021520
O          -0.89475510049214    1.23836369167731   -0.72371734041843
O           0.28544703853724    2.57848179153706    0.91387807780076
O          -2.14447931258316    2.61702261735057    0.81988904602480
H          -2.00928275329190    3.02880348921930    1.66709897770592
H           1.68676702695109    1.87585033325126    0.63197332334681
O          -1.59758134924524   -2.66717813345418   -1.10462214924998
H          -1.93528767121189   -2.66490957937017   -2.00164405990645
O           2.51857580673099    1.36179319893754    0.45392241295569
H           3.24233345848475    1.94895956631957    0.67790166351762
O           1.25642992532088   -0.78942261307910    1.63904629217877
H           0.40620969868764   -0.31452136773346    1.76852758334409
H           1.88914087504419   -0.09751432267381    1.38299432585039
O           1.35685770898321    0.37931728470416   -1.83884269439902
H           0.49212971562764    0.77602794426622   -1.60253969086777
H           1.97898389049858    0.77217339608131   -1.20314198478376
O          -2.71018840924586   -0.55035064328443   -0.02215837268037
H          -2.24140540098260    0.13739996715878   -0.52848804621837
H          -2.08931642123741   -1.94097536721885   -0.63396023466380
H          -2.36257860940303   -0.41433068450927    0.87115209408284
N           0.94358757306341   -1.95266562972858   -0.69603642792300
H          -0.04305485156954   -2.28247104973471   -0.86102301993467
H           1.04654206077895   -1.61822165347892    0.31304121849398
H           1.60490989144311   -2.69427068792910   -0.89713797649903
H           1.13448395493262   -1.08819139117552   -1.29185341774560
