    26
        -50.46507297  Gyration_radius:  2.55363824073 Dipole_moment: 4.275
 S          -0.25043913168719   -0.66684494666702    0.70296434076807
O          -1.30397438412651   -1.02279794015726   -0.23714041976025
O          -0.75158684590926   -0.47627617145889    2.05898542246034
O           0.78967636675170   -1.81547389804446    0.73737853723156
O           0.45696273060525    0.54212935090703    0.25890140692836
O           1.56404708525447   -1.62474385127249   -3.01657923517190
H           2.26960437968905   -2.02121638297469   -3.52977366673876
O           0.54814641825536    2.82143310999609    1.58703115925736
H           0.61489477697707    2.01800223707788    1.01991952957778
H           1.28022195088151    2.76774825208392    2.20321384981937
O          -2.21017876091845    1.38392530271039   -0.68103402938459
H          -1.44956269326284    1.77938085655679   -1.11541096709406
H          -1.98609315695940    0.42451574720658   -0.61094713358292
H          -2.18561821132530    1.77465972013813    0.87928002513051
O           2.65174370615248   -0.38456943458536   -0.90396162556981
H           1.87153372203593    0.07253754625999   -0.52638397547387
H           2.84008757517148   -1.09370843998268   -0.28312850198806
H           1.99855368410342   -1.07840654015202   -2.32195156769126
O           0.02879612632922   -3.04576280792036   -1.34131723035062
H           0.55803897311628   -2.42221194515068   -0.04773979423962
H          -0.77715488610022   -2.51263826633483   -1.25141755206086
H           0.54880861806973   -2.61730979306680   -2.05919307653556
N          -1.89090504086254    1.81985489443009    1.89848084778962
H          -2.64663787546498    2.09003734042251    2.51763580408633
H          -1.06077706001518    2.45241800849934    1.95680700113683
H          -1.50818808669813    0.83531805152334    2.10538085145418
