    26
        -50.47301025  Gyration_radius:  2.48579734222 Dipole_moment: 3.132
 S          -1.48143984490727   -0.74218591771270    1.16063114882566
O          -1.52820083279013   -0.66791643249405   -0.28786773582450
O          -0.83146406483075    0.41395724122061    1.76123995547183
O          -0.93157734968273   -1.99105661396071    1.65222008303163
O          -2.99313661587315   -0.70112420022278    1.63524477243599
H          -2.93417509547534   -0.89922873998410    2.56418095155983
H           0.54736944989722   -2.27588023880099    1.13394118425484
O           1.47389321943348   -2.36949949806745    0.78659269076995
H           1.81374993474963   -3.18297306132546    1.16285041117666
O          -0.14768065070104    2.74492797324282   -1.82614300345910
H          -0.59866008347903    2.71830919228818   -2.67144461433309
O           0.58323713528633   -1.49858719647120   -1.66722098905244
H          -0.29860508446413   -1.27922144395861   -1.29950133668336
H           1.01705326406944   -2.00226286976966   -0.95760593120458
O           1.76658029740028    0.32973719784576    1.28743847401867
H           1.88397455852629   -0.63395525737807    1.23958090975751
H           0.83583573072841    0.45360853946538    1.57654020655577
O          -1.97396261945757    1.93261648590398   -0.12476548358279
H          -2.03830851623990    1.00294576428384   -0.40868564631430
H          -1.58629650145664    1.84613287787009    0.75832538177142
H          -0.84734392860212    2.55056494399430   -1.14535107060515
N           1.67050617628013    0.86474003996261   -1.28304141173482
H           1.26573743243993   -0.07365649380294   -1.59021455203764
H           2.56935490928380    1.04016871524165   -1.71784665516856
H           0.99058319016870    1.63453050119816   -1.51628708578128
H           1.77297586962156    0.78530846142404   -0.22281066382790
