    26
        -50.45450813  Gyration_radius:  2.46075107489 Dipole_moment: 8.301
 S           0.51364094447415   -0.58826263650934    2.10439059081018
O           0.95281537405344   -0.54062923625875    3.45547158453091
O           0.90374325175713   -1.78774667113349    1.35157194568984
O           1.22498217776429    0.61031079481250    1.29450998077518
O          -0.91516118112049   -0.31113808817701    1.91392828039014
H          -1.65004048421962    0.94119175357203    1.18059570981283
H           1.91857207615643    0.17205550225497    0.76231169245062
O          -2.15065650200549    1.60840010627066    0.64555929115842
H          -2.50951690054071    2.23095347255312    1.27916370994746
O           0.75923886471075    0.43202732232749   -2.28707396270539
H           0.62910621268175    0.75200593494665   -3.18023007816866
O           2.89011475511674   -0.17366202245176   -0.63157159893277
H           3.59901872750225    0.46820113861426   -0.70072377343054
H           2.26104272380502    0.01617291084499   -1.34899379435135
O          -2.62793266378923   -1.21227088142091    0.10945346386880
H          -2.13558772255082   -1.07013720023411    0.94724232790917
H          -2.96726248058014   -0.33762367374209   -0.11099760712789
O           0.13938127554228    2.27077523183698   -0.58555853890789
H           0.49018066187819    1.18586204958817   -1.67401223724427
H          -0.79240523356837    2.16529692956402   -0.30187295906804
H           0.64623557599257    1.92643704605096    0.16946559105045
N          -0.23740625689491   -1.75509570189016   -0.91008497603732
H           0.30036246751580   -1.78692399670277    0.05614027279004
H           0.12921315607197   -0.98376473615906   -1.49187759808539
H          -0.12164550786347   -2.64455566581907   -1.38325199226437
H          -1.25003332205187   -1.58787968272418   -0.66355535484132
