    26
        -50.45450813  Gyration_radius:  2.4607420395 Dipole_moment: 8.301
 S           0.43724105415465    0.37797897314581   -2.16890691897827
O           1.46890200373725    1.18759723754686   -1.50724844829184
O           0.27883029866881    0.60410230448922   -3.56332195071034
O          -0.92164578645501    0.82022765684461   -1.42307941500858
O           0.57696170554140   -1.03283490539990   -1.78850287688474
H          -0.42100799384645   -1.98919860760278   -0.93094436612307
H          -0.70416911480416    1.67342434907026   -0.99745993888303
O          -0.65168884484827    0.89944521034346    2.18159708771942
H          -0.92959608479881    0.80256300381320    3.09286044787603
O          -0.92298797130325   -2.58351234432476   -0.31701603695339
H          -1.41163534930727   -3.18426670376331   -0.88103750346280
O           1.91155829329545   -2.16729706770571    0.19504779182531
H           1.16753127205012   -2.70844298574163    0.48203540717140
H           1.64317928758390   -1.85010178345763   -0.69480555005911
O          -0.66273015829420    2.87772129429811    0.24923752074082
H          -1.48055533999237    3.37817247174427    0.24491604581667
H          -0.67206910948027    2.32063922189234    1.04676820353529
O          -2.22198224527550   -0.43438616048349    0.62749482994548
H          -1.29202957541342    0.34955212293671    1.63009877607946
H          -2.02933104909072    0.04554391483277   -0.19597020568441
H          -1.85257320192268   -1.32679219739523    0.46317659243308
N           1.74142406504446    0.39166090944319    0.88239060222469
H           1.62785698515214    0.78446094990009   -0.14557107457843
H           1.87183408403912   -0.65001314424301    0.77311344796239
H           2.55653328605057    0.81607463057155    1.31122337251109
H           0.89214951939806    0.59768163937938    1.43390416982470
