    26
        -50.45450819  Gyration_radius:  2.46065942723 Dipole_moment: 8.299
 S          -1.34526637035322   -0.63396313766569    1.68105496786209
O          -1.81931756563910   -1.02152343146239    2.96392183604568
O          -1.91844289035488   -1.36621998968459    0.54402560264840
O           0.22724352345400   -0.97756294774914    1.59355550532196
O          -1.38111659884841    0.81096602571340    1.42508286349412
H          -0.16199146907382    1.86760656605287    1.21835844352999
H           0.27551995076719   -1.77545253992746    1.03008723219244
O           0.52698482695865    2.53320849436793    0.96455140995044
H           0.67173843872547    3.06648236900767    1.74717637020484
O           1.61769407860898   -0.63104939632208   -1.72507806830299
H           2.27005674322352   -0.42462698880712   -2.39504549877292
O           0.87077545860310   -2.82417892803724   -0.21541937226856
H           1.20712872254609   -2.17663550860297   -0.85885025083834
H           1.62590256280297   -3.31772863444772    0.10944036156659
O          -1.74205083765135    2.16395830381107   -0.82025559000273
H          -0.98161355515642    2.73928722023717   -0.68042501970059
H          -1.88580365455354    1.74562751918559    0.05656891014706
O           2.23695875764878    0.51845386060197    0.50099402482477
H           1.78099259619447    1.38295059438734    0.56961796845707
H           1.72226720482171   -0.05658570361739    1.09253370092327
H           1.90695844286255   -0.14668821986165   -0.88940403272662
N          -1.12964503876390   -0.29524598001258   -1.61212139409929
H          -1.46924961775732   -0.80605952918645   -0.69145800804221
H          -1.63672703209489   -0.67092189043151   -2.40594134623251
H          -1.35661771111562    0.72546719374455   -1.46841609299443
H          -0.11237895584207   -0.42956534129673   -1.73455455318431
