    26
        -50.44355161  Gyration_radius:  2.55399601714 Dipole_moment: 7.581
 S          -1.40269869302935    1.56113609375276   -1.52428256653592
O          -1.47418271653117    2.97226259750793   -1.63267961144951
O          -2.13255152715482    0.95712547649011   -0.42916081148593
O           0.08564700621989    1.10471769808880   -1.39536156483717
O          -1.79737227005343    0.87499749464631   -2.83818185606694
H          -1.83727172957513   -0.10395061243650   -2.59531058099065
H           0.53017308478587    1.52903364201167   -0.60521104521673
O           1.35494109306722    2.03495733093705    0.65651135098138
H           1.96558136151762    2.72131779691641    0.38262883065490
O           0.02126479829630   -1.59748113687555    1.98817454386495
H          -0.62074962939796   -2.08812735521844    2.50342494874393
O           0.44454699553313   -2.24537955284532   -0.58488449163864
H           0.27060318916105   -2.01922439742077    0.35723416833966
H           0.47006813729176   -3.20226909910296   -0.63751247879678
O          -1.88364040407226   -1.39641084334877   -1.68739570472006
H          -0.98230888777873   -1.67926266111284   -1.42201289518267
H          -2.20634712732172   -0.84114789888186   -0.96078686668255
O          -0.86962399285167    0.87703643748056    1.93697744322982
H          -1.45702488235494    0.93182815983639    1.15946566806901
H          -0.29933550714028   -0.65557114002538    1.99556824399996
H          -0.14264530370087    1.48381836190189    1.75251931264661
N           2.47875901828114   -0.32763368023687    0.72261783327537
H           1.87978083453730    1.17192395876039    0.74641234141246
H           3.47130764957904   -0.52291975083820    0.74632854752429
H           2.03874216321059   -0.81702761541171    1.49469990629439
H           2.09433733948114   -0.72374931457854   -0.12978266545815
