    26
        -50.46507291  Gyration_radius:  2.55353337919 Dipole_moment: 4.275
 S           0.38399097310961    0.81867864043271    0.43072410709255
O           0.41790386080315    1.22952755993152    1.82935954886344
O           1.65393536927995    0.26722920682218   -0.02051317853698
O          -0.70588503532173   -0.14427926235109    0.22071670173953
O           0.05668375473791    2.06919071347781   -0.42453823802173
O           0.12698661924049    0.16987532988081   -3.75973153829062
H          -0.16388740194651    0.43264636240059   -4.63419889075712
O          -2.18526399110963   -1.20312158999964    2.13303388724940
H          -2.91257324827790   -0.60224687590868    2.30183509656661
H          -1.72568015818250   -0.85115611225992    1.33518641948496
O          -1.85763371536688    0.66200569856107   -2.02666321205189
H          -1.80665483296093    1.60872466039871   -1.86870324949140
H          -0.65828280174851    0.24711352784853   -3.17052766881208
H          -1.50240143075640    0.25622992133722   -1.20846757357960
O           1.75192369852260    1.69165254768449   -2.26761264360804
H           0.71886734605610    2.05597920334360   -1.19882284668191
H           2.15422812448048    1.06576237137845   -1.64447693406335
H           1.26007004223558    1.13761668234121   -2.91606313531651
O           1.34505542416611   -2.14766477080543    0.91945691188774
H           0.79091416147073   -1.61992723518089    2.33466774326922
H           0.60543619837978   -2.44966450681693    0.38528974360864
H           1.60750399051444   -1.28486421775519    0.51660663554695
N           0.29628447689619   -1.02181272846238    3.05933827528420
H           0.66739793577325   -1.14496249745694    3.99452836131988
H          -0.72650255923388   -1.22584324333442    2.98886771863070
H           0.40758319917272   -0.01668938552617    2.69070796865068
