    26
        -50.46390589  Gyration_radius:  2.6237585391 Dipole_moment: 3.825
 S           0.81662455826021   -0.73390057731470    1.84763351656995
O           0.20627403752200   -1.34452963335966    0.66799259119380
O          -0.12298824115819   -0.42094356985358    2.89429574729982
O           1.65941632311174    0.38879550175593    1.47278137070228
O           1.77551683739981   -1.86057883684969    2.42880331042145
H           1.83476636353568   -1.59896614925732    3.34126360002662
H           1.03167193316946    1.59707253675043    0.67707284765952
O           0.55959627915884    2.30487347052745    0.15754592658117
H           1.17099388513117    3.04018274502801    0.10036950373569
O          -3.21409224726545    0.71926598639874   -0.41195534210824
H          -3.87684761831768    1.40294074445909   -0.51411269367868
O           1.85260957262568   -2.17499778953907   -1.22410602567698
H           1.32439204275322   -1.86776325831256   -0.45432708236817
H           1.86799746760448   -3.13136962743904   -1.16206385132008
O           0.67851165140485   -0.85375786048687   -3.22946827515819
H           1.37640633835010   -0.40436702114836   -3.70809322107907
H           1.13124964596863   -1.42400334845913   -2.56461694177478
O          -1.68226693608851    1.37477260908621    1.66278811293092
H          -1.22327302368338    0.70154405755897    2.20162848743072
H          -0.98629427770865    1.92447742799546    1.28021993780784
H          -2.77649326447144    0.88802940480232    0.45627067884391
N          -0.69075212640412    0.30395672372447   -1.21107142753954
H          -0.32682398468849   -0.05080099936307   -2.12016646092913
H          -0.42146093566895   -0.38962759309468   -0.46788101822085
H          -0.24041478949270    1.19517612808358   -0.94447644209045
H          -1.72431949107908    0.41451892829201   -1.17632685925912
