    26
        -50.46052511  Gyration_radius:  2.47372966598 Dipole_moment: 8.475
 S          -0.69177991866154   -1.76456094375070    1.24011928828967
O          -1.39214183446544   -0.52524791130479    0.86058652511170
O          -0.20520319198004   -1.76685716079739    2.58902075010736
O           0.25924769483190   -2.14039667935625    0.21618437659755
O          -1.83319640597467   -2.88532018077339    1.19849851113770
H          -1.93990932475187   -3.08341360263909    2.12343874325094
H           0.71484701474381   -1.65653371313928   -1.19948281687351
O           0.17334840872108    2.53926919645802   -0.97569151606678
H           0.48465417404860    3.34683755279562   -1.38478199173757
O           0.90457058757452   -1.27813795320149   -2.10259737359797
H           1.21917150961722   -2.01028292492092   -2.63424417836099
O           1.44785462982542    0.23402698986341    1.82316658569422
H           1.00600245766397   -0.55718766606442    2.16375766342536
H           0.84415188404590    0.97420207866800    2.02239938104123
O          -0.66267663915159    1.98687627063403    1.72312172151202
H          -1.09640448955498    1.13724640927165    1.54804643734439
H          -0.45059249137442    2.36236698131918    0.85834567904479
O           2.10743447280579    0.86733483681996   -0.67293898757616
H           1.90268481612996    0.08690821884446   -1.20500328191634
H           0.98949653718934    1.96109332635561   -0.82932568974615
H           2.00488656286606    0.58495529427781    0.26572703067769
N          -1.17705007492174    0.32265955559392   -1.55534489655096
H          -2.05315823582350    0.32352370227774   -2.06498262802177
H          -0.78230376858611    1.28805984975584   -1.45021231846922
H          -1.31433530997991   -0.06603073620563   -0.55184297256691
H          -0.45959906483708   -0.28139079078256   -2.00596404175077
