    26
        -50.46507305  Gyration_radius:  2.55393041245 Dipole_moment: 4.275
 S           0.81731865062897   -0.57389766211831   -0.01931727840515
O           0.25545565157884   -1.04872385972297   -1.27603765381030
O           1.23620462169117   -1.66428316852857    0.85351208204307
O           2.06465451463588    0.29144700813586   -0.33158240929816
O          -0.14022315042068    0.28902237712335    0.68613589184173
O           0.15495563277917    2.78560974136434   -2.53301405799196
H           0.41479175140398    3.64139050287163   -2.87722061205790
O          -1.18002134046785   -0.22016577376802    3.05809960170868
H          -0.83515535557034    0.09371099578733    2.18966190606930
H          -0.57399540082870    0.11991273457442    3.71810726039501
O           0.65688126675474    2.74852804358506    0.09971807957873
H           1.60421736685175    2.59708673356275    0.15819478523486
H           0.23569787182896    2.84370712294040   -1.55328614356497
H           0.25432294158544    1.89459230880257    0.36232039662297
O           1.67447108387301    0.59605250032725   -2.81514206930810
H           2.04631419234351    0.45130226321814   -1.33774043417750
H           1.04808560304011   -0.13837264101954   -2.71445573534855
H           1.12118359241248    1.40934206555441   -2.85699927864418
O          -2.15227908539985   -1.56799112500352   -0.41365271219008
H          -1.61250408041538   -2.29319113915568    0.91699319663659
H          -2.45201095848327   -0.68294433133637   -0.18908404390384
H          -1.29347797500090   -1.42895147145217   -0.88140390619850
N          -1.00719115858311   -2.52818344086958    1.75724482032043
H          -0.00489415983220   -2.31722224457019    1.42636102041094
H          -1.12696464388661   -3.48253127116353    2.07715797952582
H          -1.20583741250690   -1.81524626908944    2.49542931442265
