    26
        -50.46380745  Gyration_radius:  2.49142736124 Dipole_moment: 7.786
 S          -1.47573909222196   -1.21675151771122   -0.59452439992210
O          -1.83079396942618   -1.35035005215912    0.81649109619574
O          -0.12450423487142   -1.60485851445459   -0.88527145073720
O          -1.81028855470457    0.12574935605651   -1.07456471739822
O          -2.42404505959822   -2.20555650656516   -1.38097808234873
H          -3.28937535832399   -1.93207212851310   -1.09507474678945
H          -1.15621916210932    1.37488263254965   -0.30978506070983
O          -0.72554899697639    2.09485162690487    0.22152537435453
H          -1.20411832329201    2.90015680008535    0.01829479290707
O           2.00686573233711   -0.60738534186887    2.40343078665729
H           2.10287812687141   -1.52103286008423    2.67688869053628
O           1.66652738948115    1.64349134130454   -1.25713027021702
H           1.21511124770479    1.25572858796512   -2.03352639390148
H           0.95772836927493    1.96613231053910   -0.68515254115854
O           0.09844818341531    0.22535574493118   -2.98372963580890
H           0.46146538163742   -0.65189601286193   -2.82856133699787
H          -0.69100200027050    0.26162157272173   -2.41808681776305
O           2.33276699389565   -0.69511252302544   -0.13772288827487
H           2.24223142264971   -0.59860390651601    1.41915368575156
H           1.52938807460952   -1.15381526776087   -0.43651432285759
H           2.27518026627409    0.20115556952334   -0.54142065071191
N          -0.43406197751047    0.30771393695814    2.24201562361939
H          -0.84760474093738    0.51425463087505    3.14520460873844
H           0.57029136512353   -0.05848940022433    2.35786950186068
H          -1.01245821010466   -0.42606751620056    1.72288731581652
H          -0.43312288301651    1.15089744747796    1.63828184913073
