    26
        -50.46390556  Gyration_radius:  2.62418769665 Dipole_moment: 3.835
 S          -0.96487041991996    0.70613699125015    1.78699876031019
O          -2.12512288522542   -0.11862716389415    2.01059231934382
O          -0.83989117059970    1.19118703952888    0.41365768234654
O           0.27435548667567    0.09437558740592    2.23571515787463
O          -1.17514076084010    2.02034540264095    2.65612780588843
H          -1.61830742462740    1.66705844420433    3.41971154794706
H           0.87092516356861   -1.12495109646832    1.43266682737633
O          -1.52016102397814   -1.88902795904041   -2.26581304774884
H          -1.60393757490009   -2.75880757011440   -2.65767506498813
O           1.18710424921487   -1.87355926816108    0.85533292496835
H           1.91455950399493   -2.28007455896306    1.32789389561124
O           1.11330634486263    2.90202103754739   -0.07452608768209
H           0.39778201190190    2.29125678771445    0.21014557680619
H           0.69641784660906    3.75917979395930   -0.17584415096031
O           2.18728529273762    1.54411401694502   -2.11123889374775
H           1.81910724392985    2.13942590086812   -1.41681278525935
H           3.12951801380215    1.49706571494842   -1.94373836106265
O          -1.61208389938125   -2.17827851217402    0.37754474858125
H          -0.69289013496458   -2.33148271644595    0.63158003269610
H          -1.93576551816307   -1.46903908651021    0.96619871456169
H          -1.73270183773450   -1.99733791485882   -1.30823910673749
N           0.46096126704492   -0.36635161212552   -1.29918670757490
H           1.14225666304541    0.24131076288764   -1.80046877235049
H          -0.18553317561283   -0.89100723645992   -1.92260255528654
H           0.93837346317670   -1.02753915028811   -0.66438451765763
H          -0.12554675460847    0.25260635559065   -0.68363595325383
