    26
        -50.46507288  Gyration_radius:  2.5537106941 Dipole_moment: 4.279
 S           0.17941996782741   -0.87666839113483    0.44910786616708
O           1.41840688751325   -0.83485036877216   -0.31486025681575
O          -0.54561982803111    0.39635175307185    0.33554690151269
O          -0.73432838743361   -1.97527855000165   -0.15131497032788
O           0.39938024397490   -1.19660723470976    1.85461480515091
O          -0.81733899881100   -0.40862622072437   -3.65376644600773
H          -1.37447945203606   -0.59982399021161   -4.40968175577363
O          -1.09997006553626    2.01352329577683    2.34648799324117
H          -0.98265233336070    1.47852246451160    1.52694262994548
H          -1.92625493800166    1.72048405476878    2.73365134549954
O          -2.39036460660504   -0.07272063490389   -1.50963374835280
H          -1.42324880522788   -0.17122021849541   -2.91465240512697
H          -2.62055795411946   -0.96650609192516   -1.24135731044329
H          -1.74010934439535    0.22564977976653   -0.83999972039994
O           0.51169623625354   -2.32177892055308   -2.32858028682702
H           1.23230455842496   -1.84522839057056   -1.88643855111269
H          -0.30463935257996   -2.23908559638324   -1.03675812308999
H           0.09467575615499   -1.66599751547120   -2.93309987641832
O           2.15843237506845    1.57991935968295    0.34294550190663
H           1.80516401405657    1.35957109375055    1.89723486259912
H           2.01747587604295    0.65982077386611    0.01266143971476
H           1.45897301006804    2.09495659312817   -0.06829999404456
N           1.32204830133407    1.01518959439264    2.77780698809311
H           1.00376967732269    0.01729949556682    2.52958548237313
H           0.43881349279168    1.56380208309679    2.88555394806835
H           1.91900365933264    1.04930176249359    3.59630366046301
