    26
        -50.45059449  Gyration_radius:  2.46320100336 Dipole_moment: 4.137
 S           1.75675241842481    0.35057519653445    0.89117545166373
O           2.31586067977332   -0.04575142040191   -0.48551177273405
O           1.19704356604232   -0.98936246957324    1.44389433665912
O           2.77548680379520    0.82463586757346    1.75060466124971
O           0.63578573042382    1.24715227338223    0.68290725500656
O          -1.46801271803297   -0.51237174947440   -1.63456007799112
H          -2.27345538367192   -0.64271008000137   -2.13577321289287
O           0.66692821615139    3.16076324650513   -1.18890549682200
H           0.56756065251975    2.61917784500914   -0.38280302556961
H           1.42358553882924    3.73061329452921   -1.04313700662080
O          -1.97869657168612    0.53735642965739    0.64551711912769
H          -1.98791548905663   -0.18925308098491    1.31135179272008
H          -1.11700915954176    0.97231192509815    0.76293099578770
H          -1.73808812439859   -0.07190758648063   -0.76263308068160
O           0.82602824755823    0.75477177378502   -2.33149190406012
H           0.73468936564686    1.71101087201030   -2.12452220299195
H           1.70998961193035    0.29426277403889   -1.26739571718479
H          -0.05684202372057    0.36218152180128   -2.17589642966219
O           0.38279638490713   -2.18230374405606   -0.67866022267596
H          -0.36046563486896   -1.66537385084985   -1.06209417167778
H           1.12522535452263   -2.08227428823171   -1.28109215323983
H           0.84827051284035   -1.50348839238670    0.65213639354151
N          -1.60696474173106   -1.48477134054265    2.43605938847921
H          -1.81392820998258   -2.42631335625046    2.12724546604567
H          -1.96773574083625   -1.37816633315067    3.37565596414149
H          -0.59688927583829   -1.39076534754210    2.47499767038419
