    26
        -50.45251202  Gyration_radius:  2.42107998023 Dipole_moment: 4.244
 S           0.96198561438055    0.92149479262960    1.11640312112322
O           0.09869110314679   -0.18078686994543    1.47807465846621
O           0.39504158170972    2.21516664455092    1.31407121407222
O           1.38496743238614    0.75871269231185   -0.37114805328821
O           2.29664715900337    0.76752964123286    1.82837240338329
H           2.46672925064678   -0.25177237123795    1.79559275827586
H           0.63042238182837    0.95109419097152   -1.02262323619317
O           1.99394795778362   -1.93477955981190   -0.96758369901366
H           2.27583139600576   -1.04820624598264   -1.21029302603016
O          -0.51337094144507    1.28326360788371   -1.99906655716625
H          -0.29212581204652    2.08171610297701   -2.48187179709887
O          -2.23641199353648   -1.04395760542196    0.58883037011702
H          -1.39921325975882   -0.72266052039368    0.98398330340403
H          -2.51543862588556   -1.79463040208256    1.11577447339655
O           2.32641844773826   -1.73665702782831    1.63729212847433
H           2.31201879231228   -1.92848796147069    0.66042275341860
H           1.40219746805385   -1.78349249677657    1.90891976653581
O          -0.61535093795692   -1.55082525384402   -1.61715340269176
H           1.03970101404437   -1.96574087591917   -1.19388839057167
H          -1.27097815740460   -1.47885284177656   -0.90337959824798
H          -0.61725456707773   -0.69007529512398   -2.05016681600565
N          -2.11789075315572    1.87605895780393   -0.06845871108022
H          -2.53464370738554    0.99977037455110    0.22858007564163
H          -2.83506722916081    2.58944390129626   -0.06253333388473
H          -1.40033024926541    2.12865379658857    0.60909191570952
H          -1.23652336494725    1.53802064484602   -1.31724231073296
