    26
        -50.45251196  Gyration_radius:  2.42104956952 Dipole_moment: 4.244
 S          -1.44325648923048    0.96544028549507   -0.06594142577728
O          -2.59347091200488    0.16098627118886    0.18681865186795
O          -0.66087203317191    0.56152553968813   -1.21301986932210
O          -0.52529965762005    0.97246226716511    1.18921046349787
O          -1.79344170972243    2.43960558777916   -0.19221555303236
H          -0.93592281380765    2.85348769418977   -0.59516229115039
H          -0.27990505469326    0.04021345809692    1.50751619177427
O           0.05336484109204   -1.38064215770563    2.00047083829480
H          -0.36488680355135   -1.52449220845340    2.85132773648476
O           2.00810407770993    2.06648111523279    0.58602184974030
H           1.37957784783989    2.02371263016899    1.31224884241407
O           0.39969350206740    3.06832445700340   -1.24269061048074
H           1.09388051416919    2.82488986952518   -0.57174788717931
H           0.35356948365209    2.30745608830043   -1.83336565193383
O           0.70160832798710   -1.62023067234709   -1.82230795567302
H           0.16145731523831   -0.81933544801857   -1.65786124773282
H           1.06038706744431   -1.52949859626256   -2.70661660589212
O           2.21921487173850   -0.62487729902946    0.28879727878266
H           1.81395223718967   -1.04420347075062   -0.48860793283301
H           2.22333170275733    1.13050401475326    0.38517739511050
H           1.73651444867542   -0.97504692153523    1.04561035353880
N          -1.38591973437306   -2.46267765739758    0.15349591039763
H          -2.01555872416354   -1.67378644406601    0.01562922969860
H          -0.48229374588713   -1.91881800050598    1.31042978932704
H          -1.93608450376250   -3.30898242326980    0.22006324171477
H          -0.78774407559039   -2.53249796926632   -0.66328074162152
