    26
        -50.46974894  Gyration_radius:  2.44544474728 Dipole_moment: 3.879
 S          -1.79770231259523    0.24783496968181    0.56053690855288
O          -1.54446105157570    0.06718589923900   -0.87270342247913
O          -1.96396128060895    1.63315275390692    0.92552399035966
O          -0.80739153345574   -0.45613010067613    1.34995508036939
O          -3.19934714343742   -0.44530112816145    0.83053615443969
H          -3.67500355827896    0.28081493462344    1.21835003494151
H           0.17237623244956   -1.77878086045390    0.80748868813012
O           0.41174737375399    2.82063914847094    0.61755863728205
H          -0.52210434391154    2.58344855423356    0.79312955205319
O           2.50555569596931   -0.58681068608145   -0.40002752225748
H           3.28646770926559   -1.02138043749196   -0.74366760807953
O           0.73852371467718   -2.35193455817902    0.25568456134337
H           0.17421573833584   -2.58179821259954   -0.50770139891386
H           1.86450643890139   -1.32113363384992   -0.14525643976555
O          -1.21501822648743   -2.46466573366380   -1.62166708540000
H          -2.00058365671209   -2.95132432671577   -1.36751288874967
H          -1.40170191307734   -1.52470457058570   -1.42056847302976
O           1.52705231728458    0.80823476093087    1.93591783296416
H           0.92559316293835    2.29185409433419    1.27168714328813
H           0.68811246820547    0.31461537861237    1.92573112863426
H           2.10698516030680    0.34107610048413    1.32105024379235
N           0.76150871919268    1.22053264548136   -1.37851370360472
H           1.51828487543966    0.55156187102312   -1.10974857984272
H          -0.16471300313068    0.72351237693873   -1.31300012539901
H           0.70021473902588    2.00404179628504   -0.62417872035100
H           0.91084367782898    1.59545895403733   -2.30860399835925
