    26
        -50.47071306  Gyration_radius:  2.41585277359 Dipole_moment: 4.152
 S          -1.21307355786019   -0.67186673328267    1.47856245629058
O          -0.14694559735978    0.02249434559664    2.18064719011183
O          -0.77021437266109   -1.80189294351346    0.69812743691699
O          -2.02528092277451    0.25522318264107    0.68711642340194
O          -2.16984592694539   -1.25159181283961    2.59894966434804
H          -2.25747379400804   -0.51430336210860    3.19333391037456
H          -2.11294411116716   -0.39970507648384   -0.82211467916973
O           1.21823159635746    2.02083410387421   -0.90768328025771
H           1.51100204119839    2.87347965938967   -1.23111473179427
O          -1.94272490595182   -0.94910472486538   -1.62211424507577
H          -1.81026528524992   -1.82882300811692   -1.25089136963895
O           1.60845529125221   -1.97146610940902   -0.48866318143552
H           2.08874699288971   -1.33213520866431    0.08942183816830
H           0.77733811209551   -2.14241402686487   -0.00104499795422
O           2.27065577851697    0.12064287870623    0.98318340517623
H           1.47009706191094    0.05653123650866    1.53883850465436
H           2.11991381365489    0.86492105354141    0.38546217058197
O          -0.53170495125224    2.37988153989905    0.97882844736997
H          -0.12290946414342    1.89494036170278    1.71146058646564
H           0.52174019461515    2.21209055385468   -0.21281125463165
H          -1.27049135906376    1.78445024429466    0.73843590658967
N           0.56224056242609   -0.31048790072592   -2.17385022807571
H           1.07470613941722   -1.04857275876933   -1.55398088807081
H           0.83485993432688   -0.39104883271209   -3.14689096474302
H          -0.47764532940513   -0.50233366430732   -2.05044795826165
H           0.79353204917353    0.63025700265371   -1.80076017134286
