    26
        -50.46975224  Gyration_radius:  2.44485620982 Dipole_moment: 3.612
 S           0.39985302336910   -1.19002850358279    1.42258880311927
O           1.25324307935144   -1.22503719685812    0.23286531829938
O          -0.60165150117566   -2.22725089387655    1.43030643113730
O          -0.14033000497870    0.13968035167926    1.63415626490568
O           1.37208834789052   -1.50280620250188    2.63697681736317
H           0.82133899876669   -2.07641823344524    3.15797866463337
H           0.52897575911884    1.59222286301336    0.98146641844073
O          -0.63337603379404    1.91743435396500   -1.64063447490845
H          -0.54517238486204    2.65613954864847   -2.24333329675366
O          -2.32627661724399   -1.68072382825042   -0.53672296734778
H          -1.82133681243381   -2.05488528081952    0.21458779220743
O           3.12967001699497    0.66044654712690    0.15074808816177
H           3.67749596833630    0.57136073222093    0.93213808655504
H           2.51486393761826   -0.10133161165877    0.16258307243996
O           0.93886848363458    2.24523887433152    0.38157609046724
H          -0.01379575825258    2.10848121553824   -0.86953176312443
H           1.82756003483476    1.88241163865329    0.20248859890656
O          -2.43024754196370    0.81889774640202    0.34005945175849
H          -2.05444313201441    1.38603563160710   -0.34531527274070
H          -2.65009751490085   -0.81102346071837   -0.20441178041490
H          -1.70185471858111    0.64930602488671    0.96354886040868
N          -0.29893588708235   -0.75002537440868   -1.83519766046073
H          -1.21192190763456   -1.18947825294627   -1.43351002379962
H          -0.42363915127239    0.28523453946055   -1.90395829713483
H           0.42975022326102   -0.95068677118860   -1.10258496298740
H          -0.04062890696364   -1.15319444729333   -2.72886824914953
