    26
        -50.46334365  Gyration_radius:  2.62859651222 Dipole_moment: 7.786
 S           0.84351466658834    1.40252020622119    0.91131024863077
O           0.19499158421562    1.29723856385467    2.19977213048471
O          -0.08989401937882    1.58955415769854   -0.19361181782790
O           1.73438454491274    0.26630767318203    0.65291148306273
O           1.74867639469821    2.68474766274611    0.91508885950786
H           2.34045521373057    2.51746331857653    1.67295081123236
H           1.28474299379380   -1.07085164001929   -0.03262835165373
O           1.00117142036392   -1.86117597107066   -0.57231764735487
H           1.67235312322454   -2.53113413359438   -0.43501515721823
O          -2.48774156134599   -1.00837124643413   -2.38845319584527
H          -2.77845104744301   -1.73277274896311   -2.94370877911956
O           2.80126063009102    1.32741356598322    2.93343277877006
H           1.89214066838294    1.30157904163326    3.26325030476394
H           2.82945568926555    0.63507030327532    2.25922511624262
O          -2.12393380442334    0.29596590883561    1.34501929387965
H          -2.27448609958915    0.95362097337017    0.66103006757812
H          -1.32568049964576    0.60887923134898    1.81171997334528
O          -1.79492708314729   -1.95585786571930   -0.06766040656841
H          -0.83172052664625   -2.03864869964061   -0.11048324682903
H          -1.97562483462703   -1.21846396396265    0.55700096915940
H          -2.36479182667139   -1.39314910704308   -1.47195206993113
N          -0.05014933078537   -0.01200243109376   -2.22607314086886
H           0.40282822634584    0.38266073307731   -3.04241661756532
H           0.46925883899178   -0.82513060412506   -1.84374943535906
H          -0.07507989201462    0.70722376298633   -1.42644805806601
H          -1.04275344886956   -0.32268668109554   -2.42819409242208
