    26
        -50.46598194  Gyration_radius:  2.54739847878 Dipole_moment: 2.413
 S          -2.19832594476112    0.02489252979900   -0.18988124483166
O          -1.18154938993326   -0.67037431700394   -0.97788123109969
O          -1.69973057038158    1.29581528971480    0.30121092100414
O          -2.79411059972967   -0.81870617475399    0.81877775146319
O          -3.36214113773326    0.38580458269470   -1.20954425682097
H          -3.83899934051544   -0.43611876370051   -1.25150486487986
H          -1.79323661017079   -1.06896389014236    2.12583286595973
O           2.02721192878634    0.88041156883006    1.24585203894573
H           1.80922511473378    1.14632933810192    2.14043097375070
O          -1.10516371624564   -1.32852670979392    2.77986206332140
H          -1.43979711306601   -2.11825125248837    3.20867007322274
O           0.80944999101551    0.21056747304004   -2.55474097295062
H           0.01578211090892   -0.24006938776382   -2.20908536686384
H           1.56573664568489   -0.32308256346346   -2.23180463821014
O           2.70221241626880   -1.07716394917660   -1.09383701781763
H           2.07889903367655   -1.49573089995195   -0.48216410006080
H           3.19421559758486   -0.44357077272974   -0.56544527163007
O           0.66819783231856   -1.32469891946772    0.78526672319697
H           0.15184737279984   -1.44565159113095    1.60968304094201
H          -0.01226441994002   -1.14515999270976    0.10018624566440
H           1.55317931726505    0.01562979671315    1.10477625148488
N           0.58203786923863    2.02775818041030   -0.69818274782162
H           0.73252246922679    1.39250593005281   -1.55255328337572
H          -0.39044715712221    1.80576707312642   -0.32258703243816
H           1.25744272954601    1.74051526572484    0.05002530526325
H           0.66780557055878    3.01007215609470   -0.93136220541944
