    26
        -50.47080846  Gyration_radius:  2.41631413482 Dipole_moment: 4.532
 S          -1.36765633177616   -1.36771401959444   -0.44106776987742
O          -0.42924568753576   -1.12652109155666   -1.52198816163635
O          -2.16767642845037   -0.21292345870266   -0.09607354091751
O          -0.71960731792485   -1.95475714899859    0.72747506880504
O          -2.36750625374815   -2.46463740824153   -0.99124318936177
H          -3.01338950706706   -2.50389758343672   -0.29446781539896
H           0.89977943060027   -2.09383315235378    0.37907939522807
O           1.74000540326489   -1.97942688303243   -0.11950619171773
H           1.44123710499648   -2.01750643285082   -1.03573647543946
O           0.58607277967623    1.75153173142008    1.76115002854999
H          -0.03159045293729    2.13799929052439    1.09447262832350
O          -1.04115296572057    2.22472923949836   -0.27912380389518
H          -0.48653196313114    2.11465850889888   -1.06222568577604
H          -1.56845216474057    1.40427395910745   -0.22241710574454
O           0.72688053506174    1.10012399919907   -2.16863619547702
H           0.23053275452733    0.26570745574589   -1.96240926742111
H           0.79977093482734    1.13759388218770   -3.12315243551757
O          -1.19108696188987   -0.06647665575629    2.53518513327908
H           0.03160950818396    1.08681879151333    2.23357456941543
H          -1.95123027756957    0.30607976027810    2.07669144329637
H          -0.96069348453673   -0.85514775263303    2.00832036466111
N           2.19405759343245    0.62407922712873    0.09907127166686
H           1.83521992022712    0.95497418445484   -0.81302968038127
H           1.55863133719321    1.07344718931473    0.87587384662512
H           2.08947238277932   -0.43284721318052    0.10950718306043
H           3.16255012220793    0.89367158122446    0.23067638560550
