    26
        -50.46537055  Gyration_radius:  2.50510069167 Dipole_moment: 5.426
 S          -0.41582025022559   -1.89636702376783    0.85486019021230
O          -1.06411825745338   -1.27704396330567   -0.27868767141277
O          -0.89921204170481   -1.38918544025133    2.13277143783900
O           1.03997115447852   -1.83941304680918    0.78414911121830
O          -0.80480152102786   -3.42910887255024    0.80780350978564
H          -0.48409838084014   -3.77280836028193    1.63612084745113
H           1.52584018394616   -0.32514564144407    0.98126166497539
O          -0.57727632842283    2.33156824425239   -2.16480026033015
H          -0.76521091499431    2.18278958367207   -3.09227424915095
O           1.76835461126133    0.63092287618649    1.10107496431060
H           2.62274414152520    0.63573982011685    1.53595314429216
O          -2.17103325850534    1.17859881433477   -0.39997844651618
H          -1.65151888590918    1.66140078132066   -1.09118018605856
H          -1.97148672845859    0.23335262256505   -0.52861866157237
O           1.01758744596262   -1.54344120774255   -1.93827467827265
H           1.49355563615651   -1.89830162600784   -1.17777027549064
H           0.10728759466739   -1.46410855644029   -1.60727511364492
O           1.68765108843974    1.06421131494446   -1.68316578892458
H           1.80949400206475    1.04526523383800   -0.72335995509761
H           1.51010848669541    0.13375776485324   -1.93942928707572
H           0.31072078971423    1.92231872711195   -1.99979642102395
N          -0.81526671823872    1.19369278508084    1.78167045254333
H          -1.09651957341232    1.82235275371903    2.52586036259594
H          -1.42298120605397    1.32399679544807    0.87703455593685
H           0.18643582127265    1.29823366523914    1.55042842358210
H          -0.94040687090210    0.17672194590690    2.05562231979068
