    26
        -50.46182197  Gyration_radius:  2.66061474819 Dipole_moment: 5.304
 S           1.01881507760676   -0.64680282860395   -1.27169625071818
O           2.09378512547546   -0.84426075382931   -0.31002515779382
O           0.52129540166264    0.72771535763130   -1.28391470893558
O          -0.07649182183877   -1.58329927501924   -1.07173480500672
O           1.60542248956504   -0.89448570041646   -2.70125853064979
H           2.12269543513671   -1.71753365081521   -2.59506146365603
H          -0.97138474942492   -1.48717149366243    0.20922313303189
O          -2.08959041173569    2.69321867720007    1.33042063504505
H          -2.84624849630657    2.89078858915535    1.88358673761955
O          -1.65194898447495   -1.29326801504784    0.91462414223604
H          -2.02684688794733   -2.14040429223760    1.15953833865033
O           3.09475880846832   -2.83405920249093   -1.68477665622059
H           2.81676478025559   -2.25304471460681   -0.94667410193930
H           4.04740081566325   -2.73988264622299   -1.75757313128191
O           1.64803175754962    1.29237326216429    1.22548516521891
H           1.93440364059294    0.46091423153063    0.80331509426021
H           1.37193212869535    1.84323208747327    0.48681019943496
O          -0.66644225863612    0.85324084121699    2.49496810457959
H          -1.50105029660979    2.08965407325401    1.87133720377164
H          -0.94681251769415    0.01803235337951    2.09442543588432
H           0.24863751627513    1.01236997825612    2.17009996153250
N          -1.97695103017546    0.91746823004650   -0.61931864098208
H          -0.95372817284947    0.88610397477010   -0.94946484179448
H          -2.09571984763473    1.73172913521494    0.04711592965532
H          -2.59927589358853    0.97694077119798   -1.41728091057517
H          -2.12145160803041    0.04043103046815   -0.08217088135560
