    26
        -50.46334363  Gyration_radius:  2.62853727234 Dipole_moment: 7.783
 S           0.33940350147542    0.70830332674299    1.70146433181355
O           0.40239595181003   -0.71319927449619    1.38132664400611
O          -0.98757414647841    1.15833900178979    2.05948468317073
O           0.91558285293145    1.51151061854124    0.61779730118868
O           1.27960157616859    0.89880445584312    2.94369085623866
H           1.19271247130708    1.85404814235182    3.12380933849333
H           0.73557132212789    1.19665047224953   -0.90833304441684
O           0.70259445191637    0.90954142267580   -1.86364235778949
H           0.96443262164284    1.67324066668379   -2.37973584476272
O          -0.51770778569875   -2.92318389265745   -2.02299633560111
H          -0.53152499046976   -3.24886219995964   -2.92372478944057
O           0.46587623722401    3.39023891891919    2.54918192181097
H           0.76962106335842    3.18942230789429    1.65357844448293
H          -0.42063166673017    3.00526123853755    2.59186633925025
O          -2.36088489973877   -0.63804735428878    0.64640637045337
H          -2.00526076845914    0.10460468383928    1.17077665388270
H          -1.89193582341454   -1.40941857165336    0.97517953538156
O          -1.69953386416700   -0.60777742200084   -1.94886585931003
H          -0.98075038442475    0.03961201677102   -1.97541385081101
H          -1.09764099835021   -2.10658317486416   -2.01405057424636
H          -2.07391191481673   -0.55927625768453   -1.04107996050817
N           1.38789349127258   -1.50283218639759   -0.87761814477878
H           1.01241096262102   -1.22761145117769    0.09222930784772
H           0.71949443421301   -2.20248782388094   -1.30939838330211
H           1.34955233553551   -0.63203513085519   -1.44092511218347
H           2.33021395914922   -1.86826252288005   -0.80100745082191
