    26
        -50.46537045  Gyration_radius:  2.50507735366 Dipole_moment: 5.421
 S          -1.79901969595542    0.89571479281617   -0.67837719259417
O          -0.79146239331905    0.22547375469225   -1.46856000801689
O          -1.43231926070276    2.26318721478663   -0.33244640119769
O          -2.19379180595668    0.14223962943587    0.50637784482191
O          -3.08644477612015    0.99704478139799   -1.59211510205896
H          -3.67415839634474    1.56132469897578   -1.09892529165456
H          -0.98160936726547    0.12721151743707    1.55500839750316
O           2.78007831018922   -1.56058823194710   -0.53830894739735
H           2.88925175095691   -2.29066944088024   -1.14894891641363
O          -0.19548729085983    0.14373292087091    2.16220112970594
H          -0.54750316592510    0.11846257070275    3.05360910173820
O          -1.36440455920475   -2.23222659041106   -0.57945768613872
H          -1.99770860665273   -1.80271506527504    0.00803646417728
H          -1.06982532135426   -1.50421465353204   -1.15194948905420
O           1.85947143863948    0.71555992286842   -1.51615556110382
H           2.28209524720969   -0.12528120373367   -1.20782204851971
H           0.94556810749000    0.48052867069032   -1.75990951727935
O           0.79124367796165   -2.25272198088044    1.05382529397837
H           2.08629751298550   -1.85034136548324    0.10807414097605
H           0.54211263434698   -1.46752391303301    1.56162237545771
H           0.03616631600456   -2.42008343599125    0.44988670192431
N           1.00734019708883    1.98752519619900    0.54645577010925
H           0.83449399712731    1.31003318535760    1.30727623239013
H           1.50177327016082    1.48601669907266   -0.29521739935166
H           0.04845651539871    2.25902397439902    0.18323786373320
H           1.52938566409351    2.79328634147087    0.87258223426839
