    26
        -50.47071308  Gyration_radius:  2.415814811 Dipole_moment: 4.152
 S          -1.26604449556158   -0.91682670326453    1.29030880425823
O          -0.15790664676481   -0.48526358011946    2.12531732435838
O          -0.89960261923128   -1.85797216238456    0.25962386306611
O          -2.00571040170086    0.22599402838402    0.74965482283832
O          -2.26843080833294   -1.67692322161256    2.25172087917998
H          -2.30641427712303   -1.09798619455871    3.00533347702434
H          -2.13092778822193   -0.04512505744367   -0.87056816293731
O           1.36306293057477    2.08810752983749   -0.41572932288235
H           1.71734653985456    2.97040054695352   -0.53121228387528
O          -1.99527990446490   -0.39978452530413   -1.77975213703212
H          -1.92718887056112   -1.34944194928911   -1.62887344637319
O           1.46835032377407   -1.90665013550679   -0.95966124163790
H           1.98896482893081   -1.45754993223474   -0.25187193508312
H           0.62448030387444   -2.13012525667257   -0.51733612263433
O           2.26758710302671   -0.27479276760544    0.95850816326273
H           2.17299424140170    0.59864088462419    0.55581062307527
H           1.46127680152861   -0.41293003854478    1.49190595454050
O          -0.36852771436736    2.11121823833631    1.52096864152413
H           0.67752518033584    2.15742601733824    0.31214577618842
H          -1.14563296187345    1.64232236493382    1.15426251181591
H           0.00099015527520    1.43956547741175    2.11368234129648
N           0.55163833979277    0.17552106325292   -2.19140733131934
H           0.84633577049703    0.98233245609568   -1.60839124742231
H          -0.49985950011797    0.03287126898317   -2.10590121443106
H           0.82379342462240    0.30945352416602   -3.15869126999380
H           1.00718004482916   -0.72248189577851   -1.76984747680886
