    26
        -50.45977844  Gyration_radius:  2.60731486299 Dipole_moment: 3.378
 S           0.48091381873319    0.64677524499574   -0.49467112874183
O           0.08983703153925    1.24430939967712    0.76200161410619
O          -0.48760479861731    0.92279673046240   -1.55315444226214
O           0.71020268512280   -0.79704536654459   -0.36874094750923
O           1.84277202217997    1.28776035516753   -0.90948629684150
H           2.15542997154595    0.66126902791069   -1.61693827062558
H          -0.59990085761732   -1.61594071539190    0.02564330864059
O          -1.46373295338872   -2.05315082509637    0.25669986182579
H          -1.38771547937661   -2.96188485675818   -0.03812970608587
O          -2.45975883194394    1.65114456778003    1.72306742007940
H          -1.60328695961144    2.01568253348611    1.45040828364037
O           2.62194147540126   -0.79210500294665   -2.22001310876095
H           3.43981113974541   -0.85982051559889   -1.70311758365953
H           1.92347853006629   -1.15765959327818   -1.64861912471938
O           4.35010385637104    0.03692607383947   -0.18007851944428
H           3.57250785185346    0.58417601629781   -0.01437088963996
H           5.09836743952864    0.63313557934830   -0.24484999924126
O          -1.04731470129811   -0.44863758648897    2.59244307295539
H          -2.19701078304100    0.92562722416873    2.32920420026474
H          -1.23205190296396   -1.22848562447523    2.05607764601219
H          -0.40534401372110    0.07066255861537    2.07767992559805
N          -2.71659132270892    0.24054908931107   -0.46749270074931
H          -2.50550062338050   -0.73923312399143   -0.20073252617916
H          -2.75983079348626    0.84200461640906    0.42226891649951
H          -1.85487639726728    0.58205628166192   -1.01613946352061
H          -3.56484541449072    0.30908792099083   -1.01895954229617
