    26
        -50.45977841  Gyration_radius:  2.60724745966 Dipole_moment: 3.374
 S           0.40244627784023   -0.49585305522137   -0.69792239929184
O          -0.23999692519056    0.65929919010284   -1.28281995422253
O          -0.47056715690300   -1.66732269101675   -0.70781645158016
O           0.88797721524091   -0.22571394796660    0.66018729979510
O           1.65515601635920   -0.82200048960020   -1.57080548330594
H           2.16193953566176   -1.43928558029999   -0.97683810570858
H          -0.27729539343531    0.10158169452486    1.69823061020313
O          -2.91545090880638    1.31765855912163   -1.23065359897178
H          -2.11997633433127    1.10418823018114   -1.74283945974492
O          -1.06219483512653    0.27965504176805    2.28386442393874
H          -0.77966696677514    0.07145274734401    3.17567141320255
O           4.25311841375512    0.26154361602704   -0.89177832854719
H           3.37119899841252    0.30009911445284   -1.28216684397388
H           4.87577819480061    0.22724343403416   -1.62016358372298
O           2.96445577513105   -1.86797915574835    0.38939842484673
H           3.71495024162787   -1.26729892610158    0.26070499971484
H           2.28740981368581   -1.34136252725034    0.85014309218962
O          -1.23675350651442    2.50075434758228    0.48407411597163
H          -1.20448045691286    2.01668562592713    1.31747803102203
H          -0.65090085478637    2.01171782064504   -0.11964318268407
H          -2.58981524429258    2.00621876217250   -0.61199625600665
N          -2.63822044401139   -0.76061122210391    0.33729134333396
H          -1.80013154616942   -1.24544519849526   -0.13462408038608
H          -3.41355528705868   -1.39958487039373    0.47484373039318
H          -2.27558872006241   -0.39159525282903    1.23622442873203
H          -2.89983588213395    0.06595471311227   -0.29804416522686
