    26
        -50.47071311  Gyration_radius:  2.41585119941 Dipole_moment: 4.152
 S           0.84645049140660    1.54887903433777   -0.99683266416528
O           0.53659499350187    1.98009932150694    0.34490015098061
O          -0.31719227897012    1.20453768011376   -1.79625940671036
O           1.84204612809033    0.47452035581212   -1.01005719213695
O           1.52209783041670    2.78609417566603   -1.71765025467883
H           1.50783864420897    2.52196110992289   -2.63117496962224
H           2.22248743087725    0.19448675425172    0.56833432661569
O           2.20489576875518    0.17934625302084    1.55335766702522
H           1.96386999988647    1.08599477027146    1.77510217154448
O          -0.92153655519790   -2.34274341295890   -0.23202144978157
H          -1.10710423106291   -3.26503318868683   -0.41164650258786
O          -1.54154099506095    1.10651652780314    1.76401783286693
H          -0.83944715257424    1.64085345800445    1.34061619653958
H          -2.10886261206327    0.82758687639699    1.00642262036860
O          -2.42087318497344    0.09970908838504   -0.51518149667112
H          -2.11916500586540   -0.81770670453793   -0.47968973023451
H          -1.75892548227730    0.57912213344219   -1.04979533979779
O           0.40175294204390   -1.33463222716840   -2.22763111210048
H           1.15171824261704   -0.86659171827090   -1.80736783206367
H          -0.38105697865094   -2.01207405979132   -1.00861336406408
H          -0.17090015901212   -0.59492256649298   -2.48038801657786
N          -0.10066135506150   -1.02714346461673    2.01820613344856
H          -0.76015254306452   -0.15728940151918    2.01671946920640
H           0.88155711086897   -0.64465300247618    1.86877534643527
H          -0.16383706426284   -1.53797249545833    2.89152563050937
H          -0.37005399458324   -1.62894528694287    1.21633177565872
