    26
        -50.47044843  Gyration_radius:  2.42966981829 Dipole_moment: 3.715
 S          -0.56970099734466   -1.83870101894772    1.06611077275139
O           0.12238196447112   -1.83017575105952    2.32385429318971
O           0.32417237546221   -1.87800469464652   -0.08466585975712
O          -1.54192315601516   -0.75585517453603    0.92176095632992
O          -1.41546285150267   -3.18531773907602    1.03227812975962
H          -1.13812459140057   -3.60270545821855    1.84129563753837
H          -1.83627173107161   -0.08084883546619   -0.49478330888729
O           2.06120825265946   -0.24758010833181    1.00361322694015
H           2.42250294593108   -0.70810925920493    1.76410011793602
O          -2.01044856616337    0.44570868429340   -1.32189436633700
H          -2.95790558314985    0.40624415677521   -1.45863859166425
O           1.96026491945497    1.21057427107304   -1.39384545605450
H           2.29163264451815    0.74821518098164   -0.60993917690640
H           1.50839436029800    0.51469054664192   -1.93472763559765
O          -0.05532402599605    1.21707701651493    1.92098114873118
H           0.81192464956764    0.77866499046703    1.82319521579333
H          -0.70161932091022    0.49616677909820    1.79418106924158
O           0.35854498481332   -0.61449002006655   -2.45153095888775
H           0.40861010275582   -1.23586402919402   -1.70182610990568
H          -0.53105140233904   -0.24258262895237   -2.39157761859307
H           1.46477039997046   -0.90394275310592    0.57657557051437
N          -0.20802480192230    2.29516949746227   -0.45448577611461
H           0.72382557812758    1.96113445558504   -0.88957180711288
H          -0.97903165233307    1.76430782560104   -0.90219795357481
H          -0.17839951409727    1.99072916862251    0.57393830812133
H          -0.33494498378377    3.29549489768932   -0.55219982745426
