    26
        -50.45776826  Gyration_radius:  2.63199373885 Dipole_moment: 6.765
 S           1.37670974046044    0.44683640770557   -1.02577028129971
O           0.31838934460287    1.42864033484592   -1.37490679223397
O           1.01958760730420   -0.88271562303565   -1.43601196628439
O           1.68753606971659    0.55487777829716    0.39042473833975
O           2.64815067281100    0.87087408102790   -1.83166707900987
H           2.74596369556790    1.81477168107278   -1.61069869529000
H           0.65646068128674    0.33679168117299    1.53171891044474
O          -0.08355192494340    0.29927598564909    2.20786899779718
H           0.28747958543996    0.66153588631829    3.01375936352532
O          -2.79351043002950   -1.42990244621144   -0.12267837848337
H          -3.64703822156525   -1.68446803083529    0.23046664023006
O           2.01794086645748    3.42467553291920   -1.36974395870166
H           1.22870067858174    2.84637897973438   -1.31910001512022
H           1.94886453652260    3.90835193742823   -2.19578491379503
O           1.04415501843480   -3.05709495200372    0.05963460042146
H           0.88754373921007   -3.74856247679057   -0.58581343707320
H           1.11803049606340   -2.22731664444784   -0.46137990569952
O          -1.01626787428334   -2.27929982013946    1.56655344282525
H          -0.66164390220579   -1.46482962039129    1.95233278498114
H          -2.11000766615230   -1.86091890593586    0.47197449837534
H          -0.26020499390290   -2.66953731962176    1.07205134619300
N          -1.70590992314806    0.95764877123949    0.16894620868567
H          -2.20388375503522    0.04948135987006   -0.06238485587365
H          -2.35173493203571    1.73955640212993    0.18991248086754
H          -1.22648640611109    0.82865626537677    1.08609295317794
H          -0.92527269304065    1.13629276464164   -0.54579669700188
