    26
        -50.45776825  Gyration_radius:  2.63197164271 Dipole_moment: 6.765
 S          -0.86437894678421   -0.49648207464149   -1.46760577557774
O          -1.83330830066164   -0.73263413346561   -0.36702571716055
O           0.26223857326923   -1.38325217825989   -1.37857207537644
O          -0.49693326600301    0.90999004872474   -1.49409611409613
O          -1.62469850401932   -0.82078239776993   -2.79524340583286
H          -2.43838741301821   -0.29014831019706   -2.71986733871139
H           0.17006491004096    1.66290403757090   -0.31023094143114
O           0.48802519949206    2.11019176016669    0.52942938084508
H           0.40253935502693    3.05068434037379    0.36656744120377
O           1.48244002999397   -1.19054791645206    2.49961115968800
H           1.89972183197721   -1.13592385599554    3.36037581755436
O           2.81249180417711   -0.70533944368996   -1.42530605345310
H           1.85089710226259   -0.89993466736071   -1.47926704242884
H           3.24742144261062   -1.55755596855347   -1.48712491796408
O          -3.81340292635306    0.29284301973544   -1.74550007435213
H          -4.54692209004119   -0.32577618925618   -1.76409286531168
H          -3.20186152345847   -0.02167164318179   -1.04764522792931
O           2.74249217786188    0.47972638949266    0.96464798116081
H           2.88648382170144    0.06467144592273    0.08405504768733
H           2.08970576057532    1.17653580734264    0.80256106890673
H           2.04571207516212   -0.63260642026376    1.88481498830192
N          -0.72431312122858    0.09034060200854    1.82293296842199
H          -1.40594267556521    0.22076368257480    2.56271717469628
H           0.07912183339367   -0.52617571709696    2.14019283489404
H          -1.19042557614214   -0.33779899543738    0.95598114105951
H          -0.31878156426391    0.99797877769534    1.50769053520340
