    26
        -50.45776824  Gyration_radius:  2.63195447762 Dipole_moment: 6.766
 S          -1.40803954051824   -1.02008753127213    0.35322813595516
O          -1.43695926696387   -0.82219056727329   -1.06928662121382
O          -1.67132844483225    0.24475077596342    1.08585129929315
O          -0.16784817237875   -1.60738212146777    0.83372924240098
O          -2.57647532027927   -1.99087247860840    0.72501119995962
H          -2.58315621987256   -1.96677583970367    1.69902138826482
H           1.21591019100249   -0.90409114586266    0.77087909245715
O           0.87690547402926    2.45714181720433   -1.74835797040183
H           1.47739123031588    3.15501044392180   -2.01372697500574
O           2.04954504025825   -0.34732326394452    0.80612417737720
H           2.64521488878742   -0.81522777859793    1.39315234362190
O          -2.49815350218043   -1.03666475380060    3.21822231666244
H          -3.36055994224430   -0.70558636872213    3.47845976976032
H          -2.13467698970899   -0.39179426684212    2.57640545019442
O           0.41423878490338   -1.55335214723925   -2.80251349730646
H          -0.26600556020075   -1.36499760058103   -2.11896990836122
H          -0.01669614247425   -1.38464432172626   -3.64221151200592
O           2.20074199577312    0.23398720958513   -1.94517356938510
H           1.62175593260742   -0.45299227446760   -2.34676661698273
H           1.35516665436190    1.59577770850356   -1.93772245325448
H           2.31132110572421   -0.04707769018372   -1.02499902436346
N           0.39459495417009    1.76955195078081    0.75423187124272
H           0.41809267681058    2.52255763530756    1.43345151136599
H           0.48538600268257    2.13824052680407   -0.23676328427017
H           1.16806747377606    1.08710831124221    0.90800986146400
H          -0.51443330352645    1.20693378097568    0.85071378255184
