    26
        -50.45776824  Gyration_radius:  2.63195943532 Dipole_moment: 6.766
 S           0.92346831201985   -1.50093635759229   -0.20626248784074
O           0.83169762817574   -0.92910785911268   -1.57391151421219
O          -0.36276769739750   -1.91711020496126    0.27947041566466
O           1.59743829420766   -0.55513412391177    0.66843782202494
O           1.82463094526995   -2.77359284158727   -0.32513383849401
H           2.61698240417356   -2.44187594268408   -0.78498465579467
H           1.09273646463520    0.88597057106366    0.95449801276587
O           0.77457423542534    1.83617994682094    0.99983170187492
H           1.49711116949464    2.32965254988754    1.39070579902846
O          -2.86024096170689    1.20895476400405   -0.46993329077874
H          -3.49624001662554    1.92408378337102   -0.51594631337819
O           3.34859155231956   -1.45912848172703   -2.08081851709074
H           3.41482106101384   -1.95075783238796   -2.90239687203009
H           2.44092111525939   -1.09168202507897   -2.04888623071131
O          -1.46509742640967   -1.26464936099171    2.58700464452706
H          -2.23593298351366   -1.83427847203119    2.61136452368711
H          -0.97643419478044   -1.52343510337078    1.77479497599178
O          -1.83332161348626    1.29065113352951    1.91174040695040
H          -2.55444206614638    1.17363645019955    0.48494645107962
H          -1.75595756139742    0.37444100133796    2.26248025483120
H          -0.91939350585020    1.57061515748390    1.75585250273023
N          -0.38445876223906    1.34785005115948   -1.37523088410521
H          -1.41462041815341    1.25064301557817   -1.13951744146575
H           0.09239991805319    1.75213271991456   -0.54048837473926
H           0.04909649540139    0.37617671758979   -1.51688192276310
H          -0.24556239763768    1.92070076376613   -2.20073517770830
