    26
        -50.45015379  Gyration_radius:  2.6010221258 Dipole_moment: 7.470
 S          -1.90414090606803    0.53997237735985   -1.31826183607725
O          -1.19555217035953    0.46169486184470   -2.60181072855674
O          -1.00545481353723    0.85004471764701   -0.23991810533622
O          -2.70047909275253   -0.65557995821559   -1.08008507457889
O          -2.92915627674055    1.74368563318462   -1.44822305084359
H          -3.54126011384400    1.45814629133274   -2.12098438817660
H          -1.63652606673629   -1.65531558995831   -0.49778880575297
O           2.32956581563404    0.07348535329745    0.25969408636346
H           3.17364442080159   -0.35306676713509    0.41560212536887
O          -0.89417930140573   -2.27783798388124   -0.25152785470253
H          -1.28870550854399   -3.15076646250124   -0.20490464098938
O          -0.56938326273773    1.20787092850840    2.37767005418400
H          -0.92869200597198    1.18913125271083    1.47318321654607
H           0.17456058526649    1.83136967950753    2.32293272246340
O           1.91147370209212    2.37338889525148    1.86815318014306
H           2.01980301647805    1.74851622414005    1.13417813708285
H           2.46860692329479    2.05999212196662    2.58313813705240
O           0.63985621610047   -1.06177681844366    1.81129130878867
H           0.15076962965197   -0.27110989096888    2.16638246545708
H           0.01016271017641   -1.49748590119114    1.21867849308969
H           1.67235506746429   -0.35993775564750    0.90757690101840
N           0.83674392233013   -0.85834195845131   -1.76991330404363
H           0.07241032082065   -0.21117861341487   -2.18260750157559
H           1.39642748080962   -1.27582153074633   -2.50643099985526
H           1.43344598804594   -0.33319037781743   -1.08176846808136
H           0.30370372979409   -1.57588872843503   -1.23425610896869
