    26
        -50.46851010  Gyration_radius:  2.45239560131 Dipole_moment: 4.994
 S           1.21339153718476    1.17944077303033    1.19588936729452
O          -0.04441506127475    1.07444783119272    1.92499345906287
O           1.05158011909911    1.77508258319008   -0.11143298271825
O           1.92045191309548   -0.09313475342363    1.17715109367032
O           2.12411778009868    2.17252197826592    2.02579498396873
H           2.19150407149232    1.72395182898610    2.86183004586899
H           0.86980971383251   -1.28304924085963    0.95213986997076
O          -1.00187759471765    1.30600415395338   -1.79745439421796
H          -0.22363253021018    1.71062276245980   -1.37430272890454
O           0.28341701576565   -2.04951018257715    0.72384774696553
H           0.73543217536945   -2.83050465849558    1.04749482717253
O           2.47884874380609    0.00824576995714   -1.54349960555245
H           2.06100360027672    0.81900670863803   -1.20476975516912
H           2.78340325201151   -0.43268055090768   -0.74333986666618
O          -2.35334449268522   -1.85638621270282    0.09746105499525
H          -1.47446292386419   -2.03790163745686    0.47911342704537
H          -2.25293455195403   -1.98757556362788   -0.85003860249256
O           0.06372837291233   -1.15276509542366   -1.92546407237344
H           0.97185548256156   -0.81039531419836   -2.05607098108794
H           0.09907363769141   -1.56527330169850   -1.04884351323291
H          -0.70093804441368    0.39669752699199   -2.02913026275683
N          -2.18960307179861    0.79565830750819    0.45215033543067
H          -1.37115914174807    0.93162457504047    1.11203660244819
H          -1.83083892758704    1.08661560124922   -0.52314750776802
H          -2.41741548474495   -0.22703718481860    0.40912680655010
H          -2.98699556025571    1.34629328577456    0.74846466250771
