    26
        -50.46139736  Gyration_radius:  2.50381517944 Dipole_moment: 6.340
 S          -1.67694226986718   -1.13817220061335   -0.74020654012790
O          -1.32995134548519    0.17932450289153   -1.22241561608245
O          -2.20850894748443   -1.18225960660847    0.60229750466617
O          -0.56993553854507   -2.08984207430027   -0.90527518614950
O          -2.83277813120454   -1.65527677405593   -1.70332151138592
H          -3.18447485112085   -2.42593459413319   -1.26699593674619
H           0.14242281709262   -1.66224638016950    0.47194240321558
O           1.85276565350753    2.50252153526582    0.46796591080361
H           2.36187183430063    3.06244160703933    1.05526803399607
O           0.62091525351106   -1.32765192101883    1.26988225951885
H           0.18538008382846   -1.74537844318284    2.01549699024891
O           0.92600639921801   -0.52057564929965   -2.36818766436729
H           0.17417282886213    0.08945507607239   -2.24713061073743
H           0.53476415301411   -1.35223140191040   -2.02890971917724
O          -2.44129625267892    1.47122594384565    0.87039354186071
H          -2.14873794529588    1.47901281203997   -0.05185431251158
H          -2.59129982339420    0.52402011028058    1.03265397963653
O           0.01035022599772    1.37932534188645    1.90236236045029
H          -0.91641783165681    1.56268283361555    1.61795987438160
H           0.13792291836486    0.43288144845079    1.74039736469865
H           1.06636041730930    2.18661515016078    1.00252379621864
N           2.40629495963383    0.04299175786721   -0.29693496494816
H           1.86585360337794   -0.14762443352011   -1.21667617520639
H           3.38241049446614   -0.21585111438228   -0.38843655923087
H           2.29353628285255    1.06864509152623   -0.04562593528576
H           1.93931501157015   -0.51809860785247    0.43282671221306
