    26
        -50.46881501  Gyration_radius:  2.50708753149 Dipole_moment: 2.216
 S          -1.72322778272047   -1.26615180603649   -0.50521650418706
O          -1.39367290510477   -0.07082993505111   -1.28489931365094
O          -2.34410612456461   -0.94861596554134    0.75028082252375
O          -0.56123504163096   -2.14354752114445   -0.37711923875157
O          -2.77669096950864   -2.07110677647488   -1.36545539351883
H          -2.28160513476845   -2.32319094510929   -2.13885508775499
H           0.42346219520115   -1.62789017540158    0.80438598488842
O           1.71584504324848    2.61489044548523   -0.22421720914134
H           2.27388715614375    3.02228775896703    0.43948438134548
O           1.03817362602486   -1.25737545846932    1.48555079771538
H           1.41898317691450   -2.01329714815381    1.93608719635897
O          -0.86749655473171    0.44294860017669    2.45767181579107
H          -1.57166236907800   -0.10591150984803    2.05602285177322
H          -0.06323097785479   -0.09586193847603    2.35335097585668
O           0.95625825674244   -1.02426900568243   -2.27085281462223
H           0.56354445961414   -1.64511719324908   -1.63188531314016
H           0.27240348709435   -0.35027413414646   -2.37001440488904
O           2.52903460352265    0.14894413018172   -0.40606208997018
H           2.12628049885224   -0.31586010918262    0.34574506596466
H           2.13094632474831   -0.26278931596940   -1.20176189892731
H           2.09094711165882    1.69923711968994   -0.37016902248431
N          -0.79631282690916    1.94227502447858    0.30252557668536
H          -1.06516138784792    1.19337194148122   -0.39301949405583
H          -1.46484455754719    2.70381788779728    0.26408894195565
H          -0.81072303075839    1.46876018118005    1.25995672305665
H           0.18020372326003    2.28555586849904    0.08437664117890
