    26
        -50.45746853  Gyration_radius:  2.62923340033 Dipole_moment: 3.904
 S          -2.30589409344798    0.04666202966009    0.58417158442068
O          -1.44711740267128    1.23894244105699    0.49134691694742
O          -2.17709978682382   -0.60411658681285    1.85341921857511
O          -2.08733180440017   -0.84276867093568   -0.55520949908038
O          -3.79519159058229    0.57541628040183    0.44947344181939
H          -3.87051402737341    0.96100295298450   -0.42140009287101
H          -0.79730422508622   -1.64896291641971   -0.00851447263043
O           2.94234334604532    0.72863034463132    1.18294855259792
H           3.73700157758746    0.39262657253832    1.59929758833375
O          -0.02732102588326   -2.03910930061611    0.47790452853736
H          -0.38629793739498   -2.79819193472115    0.94210189311721
O          -1.25952307535663    1.12343069187881   -2.16796179384298
H          -1.20222074531470    1.50181342010935   -1.27393596110502
H          -1.59943103117699    0.23141155433936   -1.99435771091317
O           1.31178498949494    0.59107102928409   -2.74794606829905
H           1.72165345768940    1.43257370396035   -2.95114883881914
H           0.35578605882242    0.77801962316792   -2.60838136909751
O           2.31255098192637   -0.90795300223812   -0.74761751696449
H           1.56256067106229   -1.44874750769083   -0.46989786614683
H           2.00305349797258   -0.40957101505460   -1.53335558509663
H           2.79165884554247    0.15848126630757    0.37679018625091
N           0.46330439117312    0.19712540774238    1.93059494351999
H           1.45878132691830    0.51700249862682    1.77174505462647
H           0.19151077231772    0.18014160601636    2.90858772111325
H          -0.22920383902565    0.79973491555316    1.40164337899150
H           0.33246065799035   -0.75466539378425    1.50970178601922
