    26
        -50.45746853  Gyration_radius:  2.62922157649 Dipole_moment: 3.903
 S           2.07626780275672   -1.16109525162476   -0.03099878624160
O           2.79612667189061   -0.25278016914895    0.81029764808225
O           1.48761760871898   -0.47855152109988   -1.19511768753250
O           1.06644075421055   -1.94316389760007    0.68005779739153
O           3.10871236115618   -2.21015580239858   -0.62183151767410
H           2.60032568884948   -2.83259727683139   -1.13846696972216
H           0.43724966805234   -0.77358520283773    1.60164823174640
O           0.17857578661655    0.05098085923572    2.08623551235245
H           0.69402889962865    0.03488735502185    2.89531400840308
O          -1.26767127154750    2.96427512890910   -0.44307994006810
H          -1.58714723131779    3.76279331923710   -0.02119836874166
O          -2.78018970784610   -0.98257397816793   -0.96250229592654
H          -3.14776442365646   -0.73471735778866   -1.81151172551755
H          -1.97554676479543   -1.51480590788379   -1.15652692879210
O          -0.47407575688917   -2.26430094150092   -1.48218830749036
H           0.12614492119809   -1.53609747323728   -1.71722778353045
H          -0.18200580100907   -2.49261301819736   -0.58554250834602
O          -2.26359318879180    0.93425116106703    0.85671089754602
H          -2.53465417081024    0.22680568544663    0.23416486479613
H          -1.57416405159668    0.54509137361993    1.40926720922890
H          -1.75579812469947    2.20886628553012   -0.00864326317907
N           0.99835533256049    1.72345051655578    0.11570521089196
H           1.86239396872539    2.23253208701660    0.27357374396157
H           0.19370484739886    2.33684644851460   -0.19228278440634
H           1.18909330642048    0.95010598559011   -0.58289577012896
H           0.72757286478819    1.20615158258298    0.98703952290486
