    26
        -50.46961802  Gyration_radius:  2.44252436402 Dipole_moment: 6.004
 S           0.39615049464876   -1.89635547279062    0.05797966713639
O          -0.93872317246867   -1.68868633438862    0.59167747006361
O           1.34166677976507   -0.87786570403750    0.48612711333031
O           0.38759828503878   -2.06009787362178   -1.38398584795939
O           0.91461944937482   -3.25212643258535    0.67488502128826
H           0.20718398086394   -3.84104796668193    0.43795793014102
H           0.08646661419223   -0.83364619356364   -2.35271156238866
O          -0.07044924407228   -0.00247946994408   -2.87511005014104
H          -0.17233079998587   -0.27613548724286   -3.78768617509750
O           0.62831069466437    1.00322860960302    2.37778231457163
H           1.01387056750598    0.28234426883022    1.85475225586786
O          -1.69706128245527    0.59686835006857   -0.60788738344997
H          -1.40349090517599    0.49229902414603   -1.52119391813871
H          -1.50492047798956   -0.25228500442386   -0.16890956310605
O          -0.11134712404517    2.52898723835359    0.37595304269134
H          -0.88256822026631    1.99741857156547    0.08385092836454
H           0.15865899679923    2.12240086435625    1.24315640583613
O          -1.76562507699333   -0.23235266365741    2.71206266546154
H          -2.47247678324951    0.28330096168679    2.31767731137504
H          -1.50436934662486   -0.88128390346979    2.03366294600562
H          -0.20787526355815    0.63746596143960    2.72744884900820
N           1.55102734972292    1.24125724360451   -1.07949212379818
H           1.06243557307577    0.97059377993544   -1.94931212629247
H           1.61983478441883    0.37601798008280   -0.48572262877886
H           2.46540679099491    1.63731714474292   -1.26312943780650
H           0.89800733577935    1.92486248797856   -0.49983308421925
