    26
        -50.46961390  Gyration_radius:  2.48980544025 Dipole_moment: 4.680
 S           1.49771103492601   -0.00829584004914   -0.14310428446832
O           0.84022122796544   -1.21206128838777   -0.63635927422011
O           1.71205896008302   -0.04883725195489    1.29885842831142
O           0.76833368424609    1.18353251237372   -0.54287129012957
O           2.89675374593300    0.02624922591819   -0.83630201781796
H           3.35940528648589    0.72770917413617   -0.33918810738684
H          -0.64738830374876    1.54962861743845   -0.03851383593966
O          -1.58124007218460    1.74938493979504    0.26922837887806
H          -1.71930302909215    2.67694728901063    0.07150336590735
O          -1.27755014629979   -2.04755810552714    0.76846319353218
H          -0.42170950036344   -1.97030663705240    0.29923429879035
O          -0.67204266156517   -0.87778888065651   -2.73990905765052
H          -0.54183480902890   -1.68326082521438   -3.24375415027460
H          -0.00305023341846   -0.91034929347278   -2.01218633841621
O           3.70270712648507    1.62741225705865    1.11120527467823
H           4.44953342102937    1.32906954229279    1.63536570820596
H           2.92483765888367    1.12078173877418    1.42618997355497
O          -0.74579397152632   -0.01161114282596    2.36487307088356
H          -1.17029513511372   -1.44753733567581    1.54613800840614
H           0.20157782287707   -0.01461087595428    2.12466640826792
H          -1.12975214727312    0.74246986966477    1.89990244185458
N          -2.52795113139585   -0.49467039600937   -0.87021184740883
H          -1.94764542440661   -0.61144218816741   -1.73839428633301
H          -2.12599919800228   -1.21796789645639   -0.15664802564302
H          -2.32467252583906    0.45009077486756   -0.47219659602709
H          -3.51691167967385   -0.62697798394060   -1.04598943942941
