    26
        -50.45450919  Gyration_radius:  2.45151825093 Dipole_moment: 5.290
 S           2.00421003337499   -0.30233760895474    0.50022449675395
O           3.18610317599825   -0.71130104640119   -0.16815274981999
O           0.81168190724167   -1.07278763695008    0.19761843593396
O           1.75183945898988    1.17748899993795    0.16577603210673
O           2.19416056264857   -0.32071656537536    2.03260597784611
H           1.35734068753243   -0.68482829382086    2.45481865116285
H           0.78579200311031    1.49695769306698    0.31713500766804
O          -1.20157948707640    0.96293060590760   -2.11204397060951
H          -1.42757263119795    1.55356326276227   -2.83170897218533
O          -2.08480111215669    0.10928653769420    1.82073256602118
H          -2.97895921259906    0.13657417537926    2.16307973996022
O          -0.65072766572969    1.92593151518419    0.36800974464894
H          -1.15166791200112    1.38074539744099    1.00199051879097
H          -0.95195953802984    1.65969026891886   -0.52572465802721
O          -0.02645777307102   -1.36297771132313    2.81793200940775
H          -0.76016369291972   -0.74523419809287    2.62496403813538
H          -0.02900508794178   -1.99355715295564    2.09003471216085
O          -1.81058572079986   -1.16309860866444   -0.43558653986440
H          -1.85009777654243   -0.50547536861586   -1.14615353960414
H          -0.85858017072121   -1.30344346049818   -0.28976923262521
H          -2.10618287713211   -0.43195908822599    0.98007262940563
N           1.26057401148123    0.00369129702624   -2.47486104791019
H           1.61798190550817   -0.43111643090690   -3.31744627461455
H          -0.28634686472548    0.60797905390159   -2.30719648287631
H           1.27572422858550   -0.69533241328772   -1.73884512478505
H           1.92927953815428    0.70932675687258   -2.18750596708371
