    26
        -50.46961397  Gyration_radius:  2.48985072992 Dipole_moment: 4.679
 S          -0.96172180267288    0.66075624900498    0.95024248387499
O          -0.06308926315241    1.78152374159308    1.20146574864549
O          -0.41487890219754   -0.60212498219927    1.43063232802471
O          -1.32433354930479    0.56946045430174   -0.45420608158837
O          -2.26818270158659    0.89846200691979    1.77216743975455
H          -2.48588310883007    1.82527986520450    1.55570291936845
H          -0.31099675255611    0.37859135850373   -1.60723939190930
O           2.14304261718050   -1.07963371633025    0.80893092240437
H           1.28855162186215   -0.94005847839254    1.26602924675771
O           0.35778961884255    0.21507430290957   -2.33701970368080
H          -0.09495197673619    0.44370312950479   -3.15020573838245
O          -2.05518736493576    3.46592109042650    1.16550503383247
H          -1.17113018837982    3.05113247206067    1.07938290734800
H          -1.99429698020649    4.08135478892545    1.89970438018161
O          -1.14831045992945   -2.72071635750015    0.09020606086638
H          -1.23205316754755   -3.39792194635588    0.76396343751916
H          -1.01416890774883   -1.87346030360597    0.58258811649058
O           2.08329882307268    1.30310558036886   -0.32917815090741
H           2.36807369180976   -0.18309108543451    0.45976723281085
H           1.66071877541620    1.13320724823182   -1.18053101385362
H           1.36985233970030    1.61494068811634    0.26157925552996
N           1.06457671819485   -2.15226232520157   -1.27591798076541
H           0.82315200798762   -1.31388363276654   -1.85133576121126
H           0.17364218529048   -2.53110070424161   -0.86727644742811
H           1.56966842037019   -2.84749912145456   -1.81254078887559
H           1.63681832601194   -1.78076032258840   -0.42241646482303
