    26
        -50.46961399  Gyration_radius:  2.489901814 Dipole_moment: 4.678
 S          -0.73565144240051    1.19705125346851   -0.53834097357177
O          -0.79294715175248    1.05830494251405    0.91151301015503
O          -1.73647271859201    0.37644485887163   -1.21046048217878
O           0.60269576558933    0.92286606951671   -1.03433016873895
O          -1.06354438012985    2.69472416881227   -0.83543428437261
H          -1.19979912255786    2.69135120565296   -1.80220867572586
H           1.29034766210370   -0.46121192022088   -0.97258458181066
O          -0.96976039885302   -1.44432186090251    1.84028907483686
H          -1.11050791944317   -0.49791539895550    1.63270755035939
O           1.73416900141479   -1.35702302635319   -0.88763369571539
H           2.47549399482719   -1.33002750187741   -1.49442713679603
O           1.48194940833985    1.37224992838274    2.15612570367274
H           1.23611409281011    1.81543296209664    2.97020948815213
H           0.66444791387879    1.37006771643541    1.59932859942290
O          -1.72205529838148    1.95317862704269   -3.28926959024533
H          -1.78456820188276    1.17175745410005   -2.70059872351177
H          -2.61750756444416    2.14830768644525   -3.57496676004415
O          -1.00939251792941   -2.15216762006344   -0.70403368678298
H          -0.07831993880336   -2.12414941490699   -0.95811732792108
H          -1.13756599089110   -1.89785635109559    0.97862973324959
H          -1.38425880003984   -1.29335570229940   -0.98178913127177
N           1.60412598913554   -1.26254899322277    1.79634901415541
H           1.81358579476709   -1.39053838013745    0.78043546598401
H           2.16975796640090   -1.86824298477488    2.37917725217517
H           1.73652541540437   -0.24613036461156    2.02796547440460
H           0.53313847139502   -1.44624734393160    1.91146487226149
