    26
        -50.45603277  Gyration_radius:  2.51587371526 Dipole_moment: 5.706
 S          -0.03354946753019   -1.79291347132651   -0.98890524209407
O           0.89634539080794   -1.80701186134298   -2.09489730099880
O          -0.83479263340886   -2.96075371115372   -0.80821368937337
O          -1.07227541841694   -0.59064224378210   -1.37067008155006
O           0.57478924160650   -1.28392031652828    0.24340699359740
H           1.34741428601382   -0.34321005776422   -2.62345204649164
H          -1.46332428669824   -0.90995675421093   -2.17787234713131
O          -0.58550937406822    2.30928402617617    1.21011199177830
H          -1.02212921375253    3.15952581509670    1.26631474150659
O           1.64903955935049    0.57738603122839   -2.83263959658242
H           2.44392499523900    0.47556965091302   -3.35870241463074
O          -1.56209825057800   -1.89922103453159    1.71443812952336
H          -0.69984129507699   -1.73636967643261    1.29362210431702
H          -1.91492039456472   -2.64938957104795    1.22730580666941
O           1.57200245077077    0.74445569962586    2.43287958173505
H           1.28784417603385   -0.16492469398359    2.30784529243507
H           0.77145614040957    1.28166786441189    2.40362008165694
O          -2.41881395517743    0.48832431576493    0.82764964928925
H          -1.31339561908956    1.63054914708207    1.13676254477887
H          -2.15102363642908    0.22682135010126   -0.06349843125542
H          -2.25971676977800   -0.31612977842187    1.36577640650165
N           1.37170145037449    1.14218796960967   -0.24063173609305
H           1.07224056988741    0.14133167089132   -0.02671894700040
H           0.60653042134763    1.75570315810787    0.10964380260308
H           2.20463260154769    1.32967699426343    0.31686437011747
H           1.53346903119042    1.19195948725640   -1.27003965331791
