    26
        -50.45450929  Gyration_radius:  2.45158898017 Dipole_moment: 5.289
 S          -0.04746885860532   -0.38027438474166    2.05211950670333
O           0.07183736233870    0.37472019967642    3.24650568102261
O           0.90931637418460   -0.06159909492269    1.00798662516152
O          -1.47407262223744   -0.19486848900260    1.50807762567443
O           0.05960248556528   -1.89453170485405    2.33542058386937
H           0.61073138677080   -2.31830656205106    1.60897747160544
H          -1.58900254045577   -0.41804034919310    0.51056660236913
O           0.44211607351674   -1.91396582216367   -1.95263117979744
H           0.61437705039599   -2.29668466535080   -2.81362434914834
O          -0.88460590260007    1.95853982947951   -1.48763295593386
H          -1.47798206565536    2.60995217461885   -1.86366547553619
O          -1.72883670359734   -0.57240278872326   -0.97517978876620
H          -1.48394026003132    0.32771880674519   -1.27556891451997
H          -1.04757176138410   -1.17512665515595   -1.32539178322471
O           1.56883943712251   -2.67989781064204    0.40152707354651
H           1.08963653331482   -2.57631517587170   -0.44513487838201
H           2.12880209011319   -1.89965568167039    0.47218828730916
O           1.44917270077534    0.45991080732982   -1.58450974929802
H           0.90666382906622   -1.02881948710654   -1.92395297418460
H           0.75516067803499    1.10426368776440   -1.78968296642021
H           1.41580720714021    0.37012842805127   -0.61594795715659
N          -0.44840559845209    2.51810038264692    1.08335622426928
H          -0.15888772822751    3.41198094795489    1.46275290487412
H           0.29142075672918    1.84976335217924    1.27453601644064
H          -1.24389763874934    2.19913208606730    1.62476828786445
H          -0.72881228506748    2.22627796893511   -0.53585992836002
