    26
        -50.45450918  Gyration_radius:  2.45149742355 Dipole_moment: 5.289
 S          -1.29613409827797    1.39643129997328   -0.85301861845013
O           0.08431330477123    1.29150725091743   -0.41630852712688
O          -1.98845633274995    2.55871621215448   -0.42799302142978
O          -2.07899564986608    0.16628402540189   -0.36389728215363
O          -1.30853390504534    1.27008139739564   -2.39201357847267
H          -0.40287262491445    0.95501423283191   -2.69483568622250
H          -1.53499023780024   -0.70587982744698   -0.32480851213989
O           1.66452472627054   -1.69105515553335   -1.42928678838157
H           2.35654927951333   -2.32727864600933   -1.61321321198235
O           0.13202512631820   -1.12821673643728    2.35399264233746
H          -0.13059982039017   -1.59792348928026    3.14659565157977
O          -0.70983198293790   -1.93819404224795   -0.09897400877657
H          -0.37993959306773   -1.77219775961628    0.80875990258769
H           0.07221681396301   -1.94145842742275   -0.68075151208456
O           1.11672293293102    0.54838823231896   -2.87275720683193
H           1.26526613030768   -0.34804744964088   -2.51009755729703
H           1.46582526382485    1.15102531148617   -2.20761665547735
O           2.09311793810015   -0.16914549038920    0.64090470831156
H           1.64498770048214   -0.57581864619047    1.39771572666998
H           1.96172455358702   -1.14984321330829   -0.64264927106287
H           1.46838657592187    0.50744897695836    0.32600420419970
N          -1.15909663266104    1.20174005945608    2.21951551483724
H          -1.21825804712357    1.89898263514225    2.95242153136719
H          -2.09970436668070    1.03289145049123    1.88124571244978
H          -0.66428927118848    1.61983444120555    1.43788057301932
H          -0.35395778327258   -0.25328664221739    2.36318528053031
