    26
        -50.45796980  Gyration_radius:  2.58051209876 Dipole_moment: 5.753
 S           0.17429892899049    2.39140052419394   -0.52773547196741
O           0.88749889669121    1.71533841479858    0.55805366141274
O          -1.19538590866133    1.95590283421830   -0.62232196126850
O           0.91823801143065    2.34668055232137   -1.77271633844717
O           0.13191835997788    3.93467482570488   -0.11751882665434
H           0.98219023380469    4.25132182547708   -0.40779157819626
H           0.71371419177329    0.78692994830619   -1.87949667616373
O           0.59226421086055   -2.38277435853836    1.35382338279213
H           1.01193780208194   -3.02477710786421    1.92747841640230
O           0.56813771951749   -0.18496361199744   -2.01875378619233
H           0.38393999864045   -0.27761084254279   -2.95666498287253
O          -1.34356354008903   -1.74323729634220   -0.71576506119315
H          -0.74153916458185   -1.13933409617127   -1.18310832018137
H          -0.81499411525332   -2.16675624322322   -0.02960878997663
O          -2.69292020087373    0.15820801517192    0.62870325330824
H          -2.48138361802923   -0.60936287364000    0.05647161705556
H          -2.37283463074421    0.92982929015266    0.11857611291518
O           2.25733763100331   -1.74603121049070   -0.59844022921707
H           1.74841237966082   -1.05436642914926   -1.06853685806547
H           1.26468679116647   -2.13398598344386    0.67078122560319
H           2.46163257730773   -2.41684662017969   -1.25272447482328
N          -0.48862812050175    0.07269946799826    1.99870192153932
H          -0.51410448998971    0.34598535698029    2.97401395266780
H          -0.07705690388441   -0.87001492111040    1.88247638002403
H          -1.47432677842618    0.09138417916264    1.55048413531540
H           0.10052974813248    0.76970635022017    1.43161929618076
