    26
        -50.46920762  Gyration_radius:  2.50215060057 Dipole_moment: 5.997
 S          -0.31429579416622    1.62893717030761    0.34046770848023
O          -1.48497276587259    0.76476120216650    0.15801645906909
O           0.60458546069109    1.53478120388363   -0.78022833280897
O           0.33021827994506    1.34835026930828    1.61701383599452
O          -0.83572355700224    3.10374752679090    0.36882148696379
H          -1.40195496955524    3.12365647785432    1.16423810346343
H           1.89129816280099    0.64987688028192    1.28076709590840
O           0.75651379505471   -2.02362719001726   -2.50331594073799
H           1.39236659651953   -1.80021963540952   -3.18476641505303
O           2.49822123134783    0.30052805312087    0.59519939895447
H           2.20721431967459    0.81433517321902   -0.17776881926656
O          -2.04807322090046    2.16683409870084    2.53468564655135
H          -1.14742158566343    1.81071645495440    2.61566200008948
H          -2.52535229882071    1.51638698132017    2.00956387003026
O          -1.11240341923002   -1.66004064614919    0.99710031862469
H          -1.25436598664088   -0.70815044960975    0.75475767979517
H          -1.81152172140066   -2.14860964601158    0.55762544894544
O          -0.83027748040346    0.06505770731356   -2.42331505472927
H           0.08169662174159   -1.29211439091993   -2.52171311604368
H          -1.55474431494502    0.06171883360830   -1.78679730156331
H          -0.20788980572595    0.70540567416316   -2.02046861762448
N           1.36758337794830   -2.01264544683310    0.08554720683795
H           1.86505174384551   -2.82412058008184    0.43576377324016
H           1.22029171643178   -2.07594717444636   -0.95745660706835
H           0.41272510133869   -1.94052892469345    0.52769634619313
H           1.90123050299810   -1.10908961283137    0.31290382575543
