    26
        -50.45796977  Gyration_radius:  2.5805615779 Dipole_moment: 5.746
 S           2.11485851371977    1.20901016341078   -0.30691676932346
O           1.89055884028203    0.13724219784028    0.66558527946515
O           1.00260528210548    2.12229817185113   -0.36428591596774
O           2.54856223652146    0.69103730793684   -1.59099713072027
O           3.35734208984100    2.04293568234392    0.25236250720959
H           4.10427973122768    1.53809799316973   -0.05557998389814
H           1.14124165942245    0.02182750033822   -1.83270864459593
O           0.25789004185399   -0.37218455174368   -2.05524073799009
H           0.12425173153251   -0.17508403885854   -2.98556270482477
O          -1.72588244984477   -1.92593482225897    1.08616118156466
H          -2.05686930203862   -2.68231269536221    1.57168636965607
O          -2.15739333733705    0.24097574182382   -0.80128009959226
H          -2.25298979409657   -0.49800656966815   -0.18947329435252
H          -1.29963720420537    0.11483981621775   -1.24158849884540
O          -1.38081426332653    2.26616482461221    0.79248634770798
H          -0.53679854660979    2.47058625284533    0.34091877228029
H          -1.87639985471709    1.72934428582594    0.13862564164210
O          -0.18650773683923   -2.77075856551005   -0.89034951898866
H          -1.11613839805757   -2.28231658174286    0.39210856553320
H          -0.60368485290991   -3.23805282255880   -1.61659451513611
H           0.13456701384770   -1.92366941344881   -1.26149206428297
N          -0.30470235988763    0.24690307218641    2.02046388004119
H          -0.13724289982925    0.32008204981980    3.01704807973442
H          -0.85851363166203   -0.59749008247871    1.79275855158543
H          -0.81016646073173    1.12275903088966    1.63288573872245
H           0.62758397174016    0.19170603251910    1.48897897338755
