    26
        -50.45692185  Gyration_radius:  2.54014631668 Dipole_moment: 6.425
 S           0.62454778126197    1.36909343398964    1.59122644492250
O          -0.15217782999117    0.15689477400647    1.63897627037808
O           0.11209792148868    2.28302131637378    0.56797513608624
O           2.05817209612209    1.17096668982904    1.47510504033971
O           0.40810551309975    2.10430476014382    2.98727948333481
H           1.13735289175041    2.71585107143966    3.00804715320160
H           2.16986919805327    0.40866346259152    0.10948531815556
O           2.27902619412624   -0.05093641383858   -0.76793954999184
H           3.22424711604816   -0.06996419301234   -0.93133480295467
O          -2.71825583127873   -0.90427937381639    0.73143016661864
H          -2.66855575293265   -0.48976274711343    1.59681163089388
O           0.86945606028875   -2.41654810610344   -1.17276798481440
H           0.38618208308673   -2.07975617287137   -1.93126286813353
H           1.46014757347170   -1.69719682950395   -0.89623727404012
O           0.31176190929587    0.20619258195747   -2.59441679245190
H           1.04520534979745    0.15563408504232   -1.94456733481704
H           0.54876889575528    0.90200541991785   -3.20932076089112
O          -0.65918125497972   -2.46184772059113    1.09841351160427
H          -0.13497992439241   -2.63693036844962    0.29540585941790
H          -0.27528221819908   -1.65714943838814    1.48226100972262
H          -2.04021041243136   -1.63508600851974    0.78959566974042
N          -1.61480067414982    0.92638264638613   -0.79852401054556
H          -1.02045225758967    0.53064761694200   -1.55341804454118
H          -2.34912404219440    1.50671947809591   -1.19033197116090
H          -2.04215049793940    0.14810744279363   -0.19346586033130
H          -0.95976987756325    1.51497259268977   -0.18842543974413
