    26
        -50.46507288  Gyration_radius:  2.55352733565 Dipole_moment: 4.276
 S          -0.07096023815029   -0.56985002200792    0.82086963256604
O          -1.18263665281993   -0.02111928922698    1.75116944693230
O           0.96518392308757   -1.15873702482600    1.66097813146454
O          -0.66514335976479   -1.53553393395590   -0.09285307992610
O           0.47779496220713    0.57613579638151    0.08276708054100
O          -3.34765463119897    1.30302958775371   -1.12887052294562
H          -4.10703664025887    1.88752500035294   -1.12158821027019
O           3.02121444868099    1.28062548994275    0.04466402967385
H           3.17449176764940    1.85082808789814    0.79955824807482
H           2.04652887854015    1.13776594372162    0.00943549659636
O          -1.39065971265969    2.44350407524752    0.30434488487558
H          -2.61122697571800    1.79849240722878   -0.70228996701346
H          -1.63647625623115    2.27626788557504    1.21834450919658
H          -0.64599734615295    1.82989163050115    0.13328528038311
O           1.17815112102029   -1.45672669840134   -1.93865704629009
H           1.07755615694968   -0.55215153071597   -2.24724904496296
H           2.37700790949404   -1.51653817019410   -0.86730150627965
H           0.41179011940219   -1.59976398724941   -1.33221565864063
O          -3.18354055961228   -0.85999708159105    0.44507482374641
H          -3.36677713976517   -0.12455838885255   -0.18333122622868
H          -2.53743740182602   -1.42892732852093   -0.00298492332542
H          -2.06289810139461   -0.33655276148713    1.34639613970281
N           2.93370903098869   -1.37284401618938    0.02543018224130
H           2.19166692066214   -1.39832213039869    0.80475894614801
H           3.28800083214600   -0.38943098856711    0.01893345180727
H           3.66534896473208   -2.06301254244254    0.15133091195927
