    26
        -50.45692186  Gyration_radius:  2.54012282641 Dipole_moment: 6.427
 S          -2.07859946512903   -0.63417075453142    0.27084977748503
O          -1.52447200182786   -1.70733847215590   -0.55745914661879
O          -1.51956668057495    0.64256408579558   -0.09326933609223
O          -2.00986538235704   -0.94879557881696    1.68659504774421
O          -3.63156525187578   -0.56715935102767   -0.07546186664746
H          -3.98236803079001   -1.29363368673912    0.42990786169491
H          -0.46316947417535   -0.94602408823127    1.94359645931916
O          -0.02309281257334    1.90273733994471   -2.26248565299167
H          -0.98330972594643    1.92305917303890   -2.28953966286513
O           0.51416148245356   -0.98109601515782    2.13501401262559
H           0.58795367568568   -1.32043601343725    3.02938820789849
O           2.20015092993832   -1.42287833822302    0.07745184109084
H           2.42166911404238   -2.35495891139049    0.05316672428561
H           1.57939835500769   -1.31004790756566    0.82895929579713
O           2.03975769545513    1.25698021441297    1.49367500802613
H           1.42487414362002    0.59633972698967    1.85185763664582
H           2.60980607546065    0.77959429086343    0.88584635757179
O           0.16085724290252    2.76445048004894    0.19208346357472
H           0.91098205272888    2.39769132900413    0.69518710905563
H           0.18966728655459    2.34253383584316   -1.39160870556304
H          -0.56952387770336    2.14109859672826    0.33434224559069
N           0.44256320411135   -0.65380281425508   -1.86542941064292
H           0.59942180560447   -1.09783047035214   -2.76418133569264
H           0.28172421760552    0.40028183093057   -1.99711585886384
H          -0.41817155227840   -1.07502768069806   -1.38637676393445
H           1.24071698406045   -0.83413081101758   -1.22499331848906
