    26
        -50.46116890  Gyration_radius:  2.61828474885 Dipole_moment: 2.819
 S          -2.27391496397615   -0.53565686262977   -0.42749684874428
O          -1.93683963647159   -1.79427926787557   -1.03816131309268
O          -2.18629882377327    0.61341077613894   -1.31975576006515
O          -1.49870279765135   -0.30147629706034    0.79540439457654
O          -3.79640257787195   -0.61013482044691    0.01276909038331
H          -4.06770947931145    0.30134581115440   -0.03576912196947
H          -0.42893004582883   -1.50662835043439    1.01194968803934
O           0.55270168783920    1.38868078623008    1.24871976136142
H          -0.30144674863313    0.92090275118352    1.30346419100296
O           0.27775662728415   -2.19481816042833    1.10455908529674
H          -0.18600834473632   -3.01245574087478    1.29101965118903
O           0.66421014221854   -1.80473544732615   -1.58413118796205
H          -0.30581349790564   -1.92993223555439   -1.63607625664937
H           0.86335264353650   -2.08380345230996   -0.67458992004025
O           1.63126682818199    3.24823258827316   -0.64375844041673
H           1.84313946453748    4.16408318452079   -0.46135293463650
H           1.29893500846161    2.87249639373938    0.18328216357957
O           2.15761548661938   -0.56399170534439    2.20851897168037
H           1.51988555099183   -1.25379212782437    1.94704265699658
H           2.98510673822146   -0.77804304401232    1.77506143162551
H           1.18947804960853    0.80848977539163    1.71473432840201
N           0.41989451060734    0.81697543110495   -1.37898731089177
H           0.69674123570095   -0.18290765692752   -1.58451522787749
H          -0.62906247382006    0.86852707014172   -1.49215031615270
H           0.60988346933503    1.04207895544298   -0.36892704681303
H           0.90116193680825    1.50743162569294   -1.95085372882010
