    26
        -50.46154316  Gyration_radius:  2.50732815382 Dipole_moment: 8.176
 S           1.36278977013973   -1.76800875275133   -0.71155974428507
O           0.17670579045378   -2.03958816049465    0.10363043182901
O           2.50981935731678   -1.37845493644284    0.05314449874453
O           1.01832740042473   -0.83781732684553   -1.78612143293927
O           1.70980600749883   -3.12740812153104   -1.44604531790829
H           1.01749313178988   -3.15651644050400   -2.09718315774635
H           1.07526363548349    0.65752647346064   -1.44994983856552
O           1.01001710235369    1.63996028333756   -1.23965613850703
H           1.47025135305358    2.08693241181730   -1.95154637698099
O          -1.76642409876331    1.50229781453775    1.96653502119132
H          -1.34636341978092    2.20758699791527    2.46166189592249
O          -2.04935635827308   -1.21148813539981   -0.86957826170541
H          -2.66796296284642   -1.51180019729233   -0.19948449225862
H          -1.16267136765642   -1.56068616418999   -0.57570758724086
O           2.02936055253906    0.93505738659831    1.31046683886466
H           1.74685402848414    1.42085016470352    0.52449577066556
H           2.40131023115033    0.10183100047307    0.96292402577240
O          -0.08220924432838   -0.42716258522698    2.25684939292511
H          -1.20076875695654    0.68792445875364    2.14336071786662
H          -0.03425485794269   -1.12439855057027    1.57751490571315
H           0.74125875923157    0.08995013142089    2.12470143797654
N          -1.60051788773791    1.38332796464013   -0.64691949469836
H          -0.61254940259298    1.57969593816896   -0.92886495757401
H          -2.24989163977409    1.96419118767852   -1.16544285524722
H          -1.79832098778216    0.35152465755554   -0.82242277300926
H          -1.69796612545885    1.53467249019851    0.40519750119009
