    26
        -50.46854454  Gyration_radius:  2.52571889006 Dipole_moment: 1.441
 S           0.29374151765045    1.80444112684404   -0.43097375342233
O           1.05821535836403    0.81784184687705   -1.17085124648926
O          -0.13758988684770    1.28262599088156    0.86095233055424
O          -0.80580921128979    2.37962920248711   -1.17564226683397
O           1.30010134326330    2.98910014609237   -0.13019197534941
H           0.71637279690726    3.67817146197406    0.16838628821635
H          -1.89455476150951    1.20627356995607   -1.40439376331854
O           2.02353364197134   -2.25764382566788    1.84546616134770
H           2.26688711542145   -2.04318442400636    2.74722565390196
O          -2.51257233148784    0.44307535366995   -1.52642552875900
H          -3.18325186321699    0.74263587127515   -2.14270525147305
O          -2.64583622757343   -0.11443539262619    1.21691811345297
H          -2.02292315621029    0.59907883546177    1.40304627847959
H          -2.84710015915246   -0.01769092849164    0.27358186683568
O          -0.43250989273339   -1.32210777365809   -1.84111903191338
H           0.22425027334282   -0.60238371103070   -1.84880849376806
H          -1.29132558914102   -0.87074372374834   -1.91028565624257
O           2.95577363681879   -0.25910490968940    0.32395488190032
H           2.45791757235458   -1.57951691004221    1.27982045576369
H           3.67517902508752   -0.40936169416654   -0.29177582179513
H           2.25110395278207    0.18343822459580   -0.19729841966280
N          -0.28772629399923   -1.36403442199462    0.80573410415496
H          -1.22722629878668   -1.47128520821332    1.20922550697984
H          -0.32209536657782   -1.57611947873555   -0.22907913254960
H          -0.07698998927179   -0.33611177511836    0.88100740244502
H           0.46443479366853   -1.90258744292169    1.28423129765293
