    26
        -50.46161814  Gyration_radius:  2.73425905097 Dipole_moment: 3.834
 S          -1.17219997163160    0.59868253945895    2.15250470733875
O          -1.11572457796368    1.74157830946596    1.24374902313206
O           0.07569241471238   -0.13003267295858    2.19941088174035
O          -2.31616478708114   -0.25325466760952    1.86188951624409
O          -1.40959353370068    1.19436288177198    3.60153823108724
H          -2.23718271950025    1.65275482499599    3.49546185086342
H          -2.32199735246973   -0.96104218199202    0.43953022267989
O           1.84240282999609   -0.73292114067420    0.25093867723039
H           1.60514106329773   -0.32530280533011    1.10116197353163
O          -2.23063323549746   -1.36748193842807   -0.46593256630387
H          -3.11329243190512   -1.63495818689950   -0.72500706397662
O           3.09758622004979    0.51114667456066   -1.87323142980444
H           3.62383053290008   -0.14732106026969   -2.32913374131446
H           2.78787040985997    0.09260750454331   -1.05137531732963
O           0.94432856870840    1.73606009435077   -2.96199486308859
H           1.08858669279033    2.68325129136945   -2.94187681772304
H           1.78895742263166    1.32401842627970   -2.68192453205031
O          -0.00924743554566   -2.53540720962543    0.85546286164584
H          -0.11203995667344   -1.88136081050515    1.56745214806869
H          -0.79845594080366   -2.43485504415777    0.30681754592144
H           1.41851346880369   -1.61730079012790    0.31948023300391
N          -0.29450990102157    0.50294814163316   -0.89586803050742
H           0.55753024978856    0.00699754438431   -0.54215764954613
H          -0.62403091897276    1.13550475209992   -0.11132404491050
H          -0.03448498430691    1.03199355349281   -1.75408564991066
H          -1.04088214648463   -0.19066804979159   -1.06148614603488
