    26
        -50.46116909  Gyration_radius:  2.61841530342 Dipole_moment: 2.818
 S          -2.19984711917243   -0.63702564046667    0.62955989582603
O          -1.72494809327520   -1.65258076741315    1.53171271411168
O          -2.28057669770474   -1.05485411454136   -0.76442903390517
O          -1.42726282835068    0.60336515610822    0.75422820131931
O          -3.68891901477352   -0.28348441824870    1.04814261940104
H          -4.07411805292628   -0.01132429883177    0.22096476428385
H          -0.20918721107694    0.39547184438059    1.81121978089502
O           0.40704480187228    1.67440564587373   -0.90676434666433
H          -0.37979506977959    1.54009036776364   -0.34620448775171
O           0.58064173821811    0.24970257771650    2.39127847101103
H           0.22881182255168    0.12329671868313    3.27366957321765
O           0.84156186152686   -2.11198097675962    1.01804445766890
H           1.09853160471384   -1.35944214823370    1.57698641274605
H          -0.10630206444237   -2.22471879572327    1.23776161606281
O           1.19493216127753    0.59732497373228   -3.44088276170678
H           1.29654694682470    1.10054323280484   -4.24911280662789
H           0.93382051110137    1.22762662581141   -2.75517041040996
O           2.26968190468907    1.90294871997789    1.03970071077414
H           1.12379932326448    1.91435121419620   -0.28392709220270
H           1.71703835072295    1.39839875469289    1.66489606709769
H           3.10568465279070    1.43854963751838    0.97723888679712
N           0.27716918594432   -0.98572046947235   -1.30299069557618
H           0.67108315883332   -1.53037905699291   -0.48633820192088
H          -0.77270531773857   -1.09370813275495   -1.25883272636370
H           0.46441342570392    0.04141423812125   -1.17349594127754
H           0.65289999921202   -1.26227088792173   -2.20725566681810
