    26
        -50.46507307  Gyration_radius:  2.55398036506 Dipole_moment: 4.276
 S           0.29802732455499   -0.80619675921293    0.50822175193618
O          -1.06633405021495   -1.25741539203933    0.27288092581153
O           1.25677123713556   -1.65684603116558   -0.36329033845543
O           0.46320121166836    0.59292628373922    0.09074501841802
O           0.70514553553306   -0.95800548986551    1.90015114186620
O          -0.43111754344531   -0.71186363495746   -3.67555149608404
H          -0.14470702135586   -0.83974831362650   -4.58107355486644
O           1.10697632319445    2.58832358441583    1.69410189308041
H           2.06337295029438    2.61873965264366    1.74764433948023
H           0.89802140284552    1.92452131953865    0.99602492879625
O          -2.29641537306522    0.89419343542808    1.09018330621255
H          -1.97893593737362    0.01976577782102    0.75819493757886
H          -1.37167040025085    1.02996143438350    2.39950125934506
H          -2.00002474596097    1.52634248297045    0.42976436289814
O           1.57736238374107    0.42081233301209   -2.30884818214174
H           2.17732728747756   -0.30671681022514   -2.12306324871223
H           0.27489397783330   -0.18797102350860   -3.23191022764037
H           1.14597811464920    0.60978122809838   -1.44955898066637
O          -0.47733710098710   -2.70391465517391   -1.88317234203352
H          -1.11302658883870   -2.40275250555260   -1.21454881113578
H          -0.54720854879688   -2.05720083343363   -2.62220390544017
H           0.66034765947692   -2.17497367014862   -1.00670391812552
N          -0.52635072352148    0.98578770719584    3.04068296859776
H           0.00179669916658    0.10477446712438    2.71898124584558
H          -0.77520733408518    0.96285232003102    4.02303140169321
H           0.09911326029852    1.78482310244711    2.78981551375832
