    26
        -50.46507305  Gyration_radius:  2.55439439239 Dipole_moment: 4.281
 S          -0.73627401710344   -0.53338009334369    0.40761308546815
O          -0.25288351691021    0.59796663852523   -0.39580759999562
O          -1.88685352042887   -0.11967880194297    1.20219942920247
O          -1.21106327709806   -1.62524371513185   -0.58479357929338
O           0.33719782032162   -1.08309854735500    1.22367697152093
O           2.24013930653384   -2.10644882711928   -2.18263577822909
H           2.49808673784696   -2.56870750454455   -2.98144777054060
O          -1.13487074330955    3.07849019979858   -0.20765836713048
H          -0.75175390495276    2.18928271657317   -0.39273817180344
H          -1.89974771364933    3.15750883135839   -0.77967439360411
O           0.21004595603741   -0.46169986534482   -2.78164753189388
H           1.58157858356858   -1.42683689829115   -2.45502682859067
H          -0.55755426176525   -1.03892063629044   -2.81921912657873
H           0.10433102615448    0.03391080371839   -1.94295599152286
O           1.40073366297704    1.17733520551738    1.97935075789060
H           1.11009632219418    0.25311147413789    1.78735261857791
H           1.71731365877708    1.51209323352659    1.13587965782322
H          -0.02851698266067    1.84082172491662    2.30574648102285
O           0.71782307695042   -3.23940401137259   -0.28988294227420
H           0.91133557785489   -2.72037655674490    0.50703633201170
H          -0.52166830194814   -2.37322215922047   -0.52489127887862
H           1.36744045990864   -2.93621633882759   -0.96471952595743
N          -1.06248410711639    2.07551044581752    2.24953942500932
H          -1.43660752765600    2.42891496948477    3.12280184702272
H          -1.52423452271572    1.15543626736382    1.93482885700754
H          -1.19160979180346    2.73285142477482    1.44707345379041
