    26
        -50.46654163  Gyration_radius:  2.46913353658 Dipole_moment: 5.993
 S           0.91251188051536    0.45519541153891    0.51031389320552
O           1.28463003335296   -0.96651830674823    0.55412885798642
O          -0.40131119121320    0.64588537705181    1.12899985292985
O           1.96955685922831    1.17083594408626    1.37847951204214
O           0.95157563343590    0.97508284298680   -0.84083711426989
O          -0.83559899971833    2.94462394847986   -0.11605901385818
H          -0.41904686571108    2.69108293061614   -0.94690866657618
H          -0.86650199912943    2.11263240359709    0.39769295652614
O           1.03275459718973   -2.46535141798689   -1.63996964441521
H           1.29075601613501   -1.86325727584210   -0.90954938346654
H           1.75161852271146   -2.43844669635527   -2.27283419179784
O          -2.33772066374901   -0.83863125054783    0.10537970278122
H          -1.82582815504946   -0.17218118465734    0.61274167431081
H          -1.51112009506020   -1.99910167615350    0.44316775381401
O           1.22964354383343    3.65368220538212    1.34712561539266
H           0.43820329586623    3.57099824986459    0.75433450858597
H           0.89326201474396    3.89579835792604    2.21258169219698
H           1.76233777670862    2.14613006288664    1.34902519685945
O          -0.89454130610921   -0.49529342209159   -2.06685249777701
H          -0.37700604914857   -1.30587002672023   -2.18606514856644
H          -2.04822806651673   -0.67903359495501   -0.82792411438665
H          -0.24711337832617    0.15480949517360   -1.72570852076625
N          -0.66093695787614   -2.68106568362652    0.65381723704805
H          -0.43481666899439   -3.22934288705976   -0.17614707248599
H          -0.81372917496436   -3.27265369523772    1.46271017677839
H           0.15664940784625   -2.01001011159413    0.79835672790809
