    26
        -50.46507260  Gyration_radius:  2.55268995586 Dipole_moment: 4.267
 S          -0.70518389082567   -0.57467229109967    0.42070448203262
O          -0.28393163830687    0.58516596084395   -0.37729117583688
O          -1.85565767631331   -0.21772841295720    1.24231201455730
O          -1.15502082001883   -1.67296872005659   -0.57634491590456
O           0.40567888756439   -1.08973872365235    1.20866511325990
O           2.28185962970235   -1.95784265729301   -2.26360623708437
H           2.54491634086916   -2.39760628600511   -3.07340587267304
O          -1.26853064209203    3.02250210005897   -0.13976893124538
H          -0.85134260381327    2.15305029458166   -0.34398602160640
H          -2.04949276446036    3.07374720627254   -0.69288215320707
O           1.39323751917154    1.20558838593817    1.96261314859036
H           1.13741033037552    0.27153084892672    1.76931754990293
H           1.66943156604274    1.56127236754649    1.11350659152280
H          -0.05399455398625    1.80347078246251    2.33175326023633
O           0.15463441627075   -0.41526341687083   -2.79295807837074
H           1.58258889094574   -1.31082418607871   -2.51313916618971
H          -0.58426781697239   -1.02960441256120   -2.81650406717851
H           0.05040972196853    0.06249763826232   -1.94377758540927
O           0.85831377055486   -3.19380446615346   -0.35887484405705
H           1.04424245321154   -2.68187550417412    0.44436300787562
H          -0.42785666499617   -2.38612978218574   -0.54835724404882
H           1.47771228120446   -2.84685897983606   -1.04104986320770
N          -1.09801049342744    1.99559490923284    2.30240541357649
H          -1.52869241276548    1.06139702565788    1.98572936958858
H          -1.27262834177388    2.65689448610704    1.51189976559445
H          -1.46582547811512    2.32220582305961    3.18867643933506
