    26
        -50.46131610  Gyration_radius:  2.6707605379 Dipole_moment: 3.506
 S          -0.72084003839966   -1.56248056094842    0.17902350049501
O           0.42682209707606   -1.72257963998371   -0.70794260998848
O          -1.57837863768753   -0.47882524309527   -0.24649035219183
O          -0.27134669884162   -1.38201196364279    1.56921011491022
O          -1.56286321176254   -2.87521206643880    0.13378108095841
H          -1.01198275376348   -3.52328907609354    0.61630344751378
H           0.64064254642408   -0.06816228157906    1.76206963012830
O          -1.13346238326713    1.91216727065727   -1.51618306167231
H          -1.59182556800741    1.05798634385684   -1.50796096859563
O           1.19812650138149    0.75267216281590    1.80345358980793
H           1.78947677585293    0.63461781288616    2.54817277736474
O           0.06933345881329   -3.95774302395990    1.92076769584408
H           0.13490314536787   -2.98155861209403    1.96931620537582
H          -0.38097060422043   -4.24095623572351    2.71976050194312
O           1.24867573687245    2.49772442332725   -3.05189369601468
H           1.29121181862256    2.98115527963156   -3.87753883327162
H           0.32528900138901    2.51924546776251   -2.76629063548259
O          -1.36083517416604    1.86340991273781    1.14476499942706
H          -0.51217775608474    1.75685556810761    1.59073515228984
H          -1.30774108354365    2.25807810180401   -0.61455241405144
H          -1.61927869328458    0.96530933566101    0.87222591360124
N           1.21542165653824    0.72538681672686   -0.91326460646335
H           1.92099115509079    1.01909434360781   -1.58694352118701
H           1.47413414511376    0.93687592872335    0.06492775932602
H           0.32136820476770    1.23261375195771   -1.15090878699803
H           0.99530633971851   -0.32037382669459   -0.95454287307477
