    26
        -50.45514041  Gyration_radius:  2.75132761746 Dipole_moment: 5.663
 S          -2.49490048918943    1.47933128862219   -0.07302214606070
O          -2.57641608502530    0.50508823900168   -1.16878729542298
O          -1.25627961785825    2.21516434340299   -0.07695931914648
O          -2.79506126159172    0.84432313868160    1.20307867705843
O          -3.66080013332312    2.52270198373900   -0.33769290921547
H          -4.43886422783938    1.97473113359308   -0.29828782328446
H          -1.71576735926511   -0.20875936098767    1.65992087168832
O           1.18373345119224    1.31119078491545   -0.42172136026339
H           0.36807032230964    1.84774446381162   -0.31835185563908
O          -1.06130549471012   -0.94026637920585    1.84707724137361
H          -1.50821582076892   -1.53804833676891    2.44793941972315
O           2.08650103295382   -2.10799120498916   -0.16766003942333
H           2.77618528499908   -2.75541943034574   -0.01897079202428
H           2.43750341919760   -1.47597231137479   -0.83067100696180
O           2.93541138234450   -0.16864346479855   -1.85521967774309
H           2.34976446389162    0.52560199673825   -1.49946115837157
H           3.82330081872975    0.19044937337165   -1.82100445141680
O           1.61040027832281   -0.14331861191914    1.76800430288094
H           1.43516248360591    1.02203344149615    0.48655798556372
H           0.69989563641452   -0.29775480747400    2.05910812529352
H           1.84265332303335   -0.92382984606145    1.23631237218417
N          -0.40132190061482   -0.80461831205574   -0.78377976888718
H          -0.09867513760885   -1.56672113512930   -1.38184918977801
H          -0.53611548108165   -1.12998078980020    0.19228733824772
H           0.32033844705682   -0.03026372509524   -0.76417724436564
H          -1.32519731515611   -0.34677247150436   -1.08267030604081
