    26
        -50.45499979  Gyration_radius:  2.40459479614 Dipole_moment: 8.856
 S           0.63781650470456    2.04224031773265   -0.49756880287005
O           1.69839856063407    1.36245937901281   -1.23365689200876
O           0.84994217202381    3.40967448949039   -0.16991478427685
O           0.55700296247871    1.23617813737371    0.90374100204924
O          -0.67924279736289    1.77424848585791   -1.10643645651162
H          -1.72117717342961    1.62127523731497    0.05227936354916
H           1.08976153347878    0.45062176298917    0.70161796859255
O          -2.21246607782058    1.40067064273157    0.89484264872860
H          -1.82947624637941    1.98824666714685    1.55032269938981
O          -0.29335818882420   -1.93240091653701   -1.23045524124405
H          -0.57917902704161   -2.69889438627694   -1.72866779870173
O           0.91686038242184   -1.17392699515236    2.54550068103117
H           1.53015945652100   -1.27389994083890    1.79614807953349
H           1.11010120024511   -0.31525234543397    2.93063455233346
O           1.96594059597824   -0.89420899952058    0.01787705262957
H           2.12505561913840   -0.11693509852921   -0.56929132989670
H           1.34227918169537   -1.45590519298132   -0.46891398584004
O           0.00668660777919    0.02339201834215   -2.86129824787855
H           0.93187234093215    0.29982996297131   -2.81608583745840
H          -0.20820658994915   -1.18079556101851   -1.90728363989781
H          -0.43434477426794    0.72906750640553   -2.32768540709184
N          -1.37164690261897   -1.07140227851243    1.11007947028277
H          -0.54101169319959   -1.11391998836636    1.75320605922863
H          -1.71880219990195   -0.05030513981567    1.04470276702042
H          -1.05576000323122   -1.39004712235827    0.16551377184470
H          -2.11720545400487   -1.67001063202821    1.45079231746141
