    26
        -50.46161790  Gyration_radius:  2.73457489241 Dipole_moment: 3.831
 S          -2.37008799995913    0.67224343755307    0.54805934873888
O          -2.09950956094719    0.80311515619313   -0.88191986579460
O          -1.28277660605748    1.16793485047333    1.36208392076520
O          -2.76191402282432   -0.68723668053750    0.89064956438998
O          -3.62453703546861    1.59232749986798    0.84941943068396
H          -4.29216745078262    1.20734801328215    0.29059640575748
H          -1.66794584782184   -1.81497375626081    0.65585532085572
O           1.39033103622612    1.00144017346244    1.02742322892905
H           0.56825653550364    1.50787291342360    1.14117202302654
O          -0.91556160351305   -2.44635696902631    0.48640403198562
H          -1.31167450436966   -3.31580111482863    0.41645446898437
O           2.02176677265842   -0.07248712444727   -2.93080911728661
H           1.83570687155320    0.51907276556119   -3.66148456967039
H           2.58013729140019    0.43396568485535   -2.30369074064787
O           3.26063270974818    1.33429964501208   -0.97898082836844
H           4.12141563825000    1.11483897721922   -0.61970798382420
H           2.64638106155484    1.35371881574288   -0.22477802486394
O           0.20592511842412   -0.83448133200680    2.53275144041934
H          -0.05054665062575   -1.60913370981664    2.01489731868598
H           1.30033369801617    0.30323750041683    1.71387304679404
H          -0.50672703865594   -0.18862090966388    2.39010675568409
N           0.19780263413903   -0.42285020549903   -0.96236542745851
H           0.76623179960955   -0.43904427329758   -1.83455057279723
H          -0.03225155544911   -1.36700082726967   -0.61432974378529
H           0.73849904996050    0.08825618017129   -0.22515332002018
H          -0.71772035058614    0.09831528941082   -1.08197611117949
