    26
        -50.46161810  Gyration_radius:  2.73443338768 Dipole_moment: 3.831
 S          -2.36564021506387   -0.51058445232472    0.71488430195772
O          -1.25983128230411   -1.01300779884752    1.49923841011442
O          -2.18299796451845   -0.74101525340289   -0.71647900511688
O          -2.66997928740257    0.88565493911846    0.99196533542853
O          -3.64473600729924   -1.34406705257067    1.13964990866434
H          -4.32297607296044   -0.96013792091055    0.59299151065531
H          -1.53555089743632    1.93737447377697    0.63006222377351
O          -0.76338601527231    2.51642380599434    0.38130239237704
H          -1.11906045607361    3.39992884708127    0.27819361037717
O           1.39436748212204   -1.01173427529734    1.01210676340798
H           0.55476818745410   -1.46403446054905    1.20136296742927
O           1.85364860403878   -0.20987788312944   -3.03299494058194
H           2.41929851296607   -0.70930558207436   -2.40679469118491
H           1.59542712924950   -0.83147659097409   -3.71514233480657
O           3.12745858312176   -1.56549602680939   -1.06739378342949
H           2.55616679607051   -1.50779275007503   -0.28199840865739
H           4.01627190050162   -1.36609454304335   -0.76936494055992
O           0.39238398806758    0.97306292965678    2.46081681067225
H           1.38062123198527   -0.27011508637807    1.65734785891978
H           0.14564323739964    1.72775827495016    1.90983407396232
H          -0.35858590455030    0.35877594732105    2.39787102376619
N           0.16433577949634    0.35386271218073   -0.99538708076155
H           0.68253160811559    0.28847902093999   -1.89611612447483
H           0.71985712101949   -0.14052116368015   -0.25775092419824
H           0.00138630676864    1.32786715149939   -0.69484815207837
H          -0.78142236550483   -0.12392725244281   -1.03335680564886
