    26
        -50.45821262  Gyration_radius:  2.48055725812 Dipole_moment: 9.146
 S          -0.38632829826103    2.07848285756535   -0.71258303313017
O          -1.61968998082599    1.56584946327499   -1.32576456730282
O           0.79715736246120    1.73088153468797   -1.43493797800642
O          -0.34983359758782    1.69611877918588    0.70087157553200
O          -0.52982297238265    3.65260164588429   -0.73713686226630
H          -1.37836628416939    3.78043297491731   -0.32665344178554
H          -1.17036592925704    0.48117148699661    1.33975068172526
O          -1.69284840063483   -0.30512071795172    1.65748861954908
H          -2.19527775630565   -0.00229124332384    2.41459255632637
O           0.68449664888253   -2.14459459503827   -0.90473001548832
H           0.92249154315427   -3.05083626746411   -1.10352293116314
O           1.99882703843017    0.46758671316584    1.49155517473103
H           1.25323462169321    1.04303080658634    1.25575544105257
H           2.48262759321398    0.31460186318080    0.65303319877313
O           2.73437309292134   -0.11652226131229   -1.05152648279104
H           2.20119524665331    0.64251557914705   -1.33940769919195
H           2.15935118876022   -0.88283995901100   -1.17476305342729
O           0.68763551646135   -1.79159715562839    1.63667039630640
H          -0.18619822428419   -1.43254238513187    1.84616759260717
H           0.75150755140103   -2.04902368649781    0.10400110063364
H           1.29620143640884   -1.00551330426124    1.71138967651084
N          -1.70284134289132   -0.95957919159030   -0.95598282628352
H          -0.76793552421697   -1.42469443532039   -1.09116915796219
H          -1.91334333629800   -0.95074208848793    0.05917798463440
H          -1.64709031392935    0.09216960939526   -1.22652371611158
H          -2.42915687941559   -1.42954603299412   -1.48575226354316
