    26
        -50.44523612  Gyration_radius:  2.65745471903 Dipole_moment: 4.329
 S           2.49149241541865    0.33191089165002    1.04414321133952
O           2.30172518510604    0.07313792559683   -0.36445231894850
O           2.49059607937998   -0.83956518890973    1.88442635218107
O           1.54285914964251    1.34839627803933    1.53538937786920
O           3.93105124848764    0.99251661770277    1.19263696927113
H           4.12737150183172    0.85549432781730    2.11439895815617
H           0.49015818253409    1.81645072220853    0.74379198465863
O          -0.97656792596327   -1.30301692876911   -2.14956785447098
H          -1.14448722057082   -1.73603245711400   -2.98725820048293
O          -1.82164162221023    0.14800650739636    1.19820085856563
H          -1.88636802304836    0.26158279861451    2.14724402000986
O           0.45797792795527    0.97174837904322   -1.95523419211217
H          -0.04643695937067    0.14644099916904   -2.11937434685403
H           1.28858623219109    0.66889124139022   -1.51439072552748
O          -0.38009507489364    1.99842504986141    0.14799181168439
H          -1.04340381757687    1.33528623881792    0.53676677406899
H          -0.08801320165100    1.62825574179211   -0.81741270651972
O          -3.24617397645260   -0.33752829968839   -1.06991575036398
H          -3.48550634707894    0.53428952012549   -1.39006177906885
H          -1.85042467355997   -1.04284263693197   -1.78340439169607
H          -2.90835564367716   -0.21562145016285   -0.16464177944143
N           0.00750613529079   -1.58555019336235    0.74915571641641
H          -1.09505618839398   -0.59222974730115    1.04242803583854
H           0.14303671410235   -1.62834844164248   -0.25592278366957
H           0.89725528082985   -1.30508026216920    1.16743861685949
H          -0.19708534831197   -2.52501763316580    1.06762415222913
