    26
        -50.46886178  Gyration_radius:  2.50870710256 Dipole_moment: 1.110
 S          -0.70708794636185   -0.29350525037033    2.08399072795476
O          -1.80346039637540    0.44533002177208    1.46001582397211
O           0.33974477137942    0.54748070513453    2.59147781579631
O          -0.21260127482272   -1.33287745309260    1.17787807656666
O          -1.34167999249938   -1.05414742692003    3.31680878919719
H          -2.08821695488089   -1.50809602781563    2.93807417927195
H           1.24194255022342   -1.19541484898828    0.49579352525687
O           2.12727717213200   -1.07296912227669    0.06839545695047
H           2.68910238771315   -1.76024889524318    0.42967916138641
O          -0.90373297999225    0.27632514215330   -2.44455426516369
H          -1.43710717232502   -0.40720913879212   -1.98190701029261
O          -2.14864414977700   -1.29624911343758   -0.65581503986847
H          -1.38120860581134   -1.50414406218711   -0.08988848614022
H          -2.63298377752540   -0.63703179363132   -0.14658894723059
O           1.83260100203371    1.58916389714042    0.66575055086751
H           1.42931691216879    1.35626219843561    1.52748073878813
H           2.19564299418921    0.74656712877170    0.34727260951277
O           1.58766169130219   -0.76371335063079   -2.58494576097040
H          -0.04249742725006   -0.14847053487923   -2.63301056111235
H           2.30490228332440   -0.22099252399654   -2.91506189644540
H           1.78955572655571   -0.95527372845025   -1.64908208134822
N          -0.56986779451676    1.86018360548646   -0.40706323268103
H          -0.89258661822254    2.81136725533841   -0.54824240429216
H          -0.68795340051165    1.27441956300392   -1.31010529425245
H           0.44207020366580    1.85116018155303   -0.08669284629357
H          -1.13018919380220    1.39208359191648    0.35034039058385
