    26
        -50.46886204  Gyration_radius:  2.50881621899 Dipole_moment: 1.107
 S          -2.13918982712580    0.59436694936569   -0.05560946757254
O          -2.31537097321157   -0.04476527104120   -1.32888674678477
O          -1.43444589375264    1.87291248762439   -0.13294334024664
O          -1.50483641496333   -0.27787281953118    0.93569447451810
O          -3.57856792427720    0.92453552008292    0.51045653418476
H          -3.39770701195080    1.43088545955253    1.29644177192134
H          -0.69082332977719   -1.58866683131416    0.46717888885270
O           2.34701292529696    0.88287303885933    0.76417694870043
H           1.67706317109905    1.12870883591197    1.43975370430145
O          -0.17323372991525   -2.37196546152666    0.15097884344144
H          -0.65462433705901   -3.14304985329084    0.45471860525696
O          -0.06507072059139   -1.08166228572104   -2.26861162385944
H           0.04719101155739   -1.74265858407053   -1.56599652634353
H          -0.98816107294411   -0.77525526239674   -2.15273816345198
O           0.10796292082209    1.48238377627798    2.12440949364970
H          -0.24720704587864    2.19183930342786    1.57756772085304
H          -0.42753534093998    0.70736647475541    1.86940123730052
O           2.41443467812257   -1.81920432934710    0.80317986228686
H           1.48094274749093   -2.05578633862603    0.64260246470884
H           2.93275751243450   -2.28509081303390    0.14577973277224
H           2.48781401672904   -0.07930438362807    0.87433873253677
N           0.83644569207541    1.22017507303929   -1.32754330549028
H           1.19694246201571    1.87423466903143   -2.01390452484676
H           1.53919411899169    1.08712389293178   -0.51443896848139
H          -0.06169353489920    1.58049559319052   -0.91502275153209
H           0.61070589066706    0.28738113948759   -1.78098360670220
