    26
        -50.46970036  Gyration_radius:  2.58902657668 Dipole_moment: 2.423
 S           1.07526258062942   -1.24515011065224    0.15829823757495
O          -0.12752792303768   -1.98188356788294    0.47655783714988
O           1.16262537131073   -0.01299096305366    0.93914144731940
O           1.17992830316436   -0.97120567173673   -1.27944876728923
O           2.31908871419272   -2.09551526765163    0.56229590061865
H           2.34634475573847   -2.79311963446506   -0.12125903755866
H          -0.03017875232042    0.00461907025677   -1.69248019237072
O          -0.78301898985007    0.61858064136912   -1.89115090504719
H          -0.90063614998346    0.59253350749254   -2.84241235371330
O          -1.07624419130745    3.24358459964499    1.48392026866148
H          -1.76559448180147    3.68481878629311    0.98541708319327
O           2.14725780849717   -3.36226207966352   -1.75417644714417
H           1.68526328930310   -2.50350046946507   -1.83610812279363
H           2.93044084789170   -3.30570204619935   -2.30644051462765
O          -2.32507070454218   -0.60840957926523    0.03210522943896
H          -2.01113104081131   -0.10470603965778   -0.73883960991992
H          -1.65491973819735   -1.31939361389434    0.14270347468678
O           0.66717070958505    2.36926868391131   -0.28019671553016
H          -0.33864033200860    3.06699175857537    0.84074772329407
H           1.07609483607775    1.60853251513797    0.16932415742428
H           0.12497834149730    1.96984772450543   -0.97835391079686
N          -1.15420924771902    0.63413715264252    2.01612616610206
H          -0.17919851256067    0.34939727019317    1.72226960296089
H          -1.79559075938072    0.17315757069586    1.29415712894413
H          -1.35271522315518    0.30618234558227    2.95440523455440
H          -1.21977953121728    1.68218743728654    1.94339709486524
