    26
        -50.46886146  Gyration_radius:  2.50880099215 Dipole_moment: 1.110
 S          -2.14411209697066   -0.05010547185476   -0.57472744399166
O          -2.07116763024626   -1.45800987096365   -0.84543617229173
O          -1.53874680962852    0.78024024784118   -1.61463816383262
O          -1.60351299107156    0.30475463516194    0.73961429506752
O          -3.67495075188451    0.34551500059655   -0.53940398562125
H          -3.65786817138386    1.29500825127165   -0.46822596641896
H          -0.62740924009403   -0.71279736885730    1.52170960726382
O           2.12340726510840    1.52790902133264   -0.15992659675512
H           1.33955630503027    2.08856994682206    0.03246636021687
O          -0.00780966361287   -1.34403185428454    1.96795365687255
H          -0.46964244336279   -1.65646072995375    2.74744367735505
O           0.37185311801343   -2.43235882397426   -0.52220659009469
H          -0.57921615460596   -2.31431744019587   -0.72459385019778
H           0.42567138297406   -2.26428872674825    0.43285184156809
O          -0.33882810830301    2.56823526816863    0.11586617784381
H          -0.65902873174631    2.51039837054113   -0.79104308354402
H          -0.76608463984028    1.81045736748419    0.55822086870384
O           2.39349192737686   -0.05581496723513    2.01432208196566
H           2.31976556586716    1.05863524019336    0.67603830400714
H           1.51852129827171   -0.48507814072119    2.07244885226345
H           3.04435079452228   -0.75887502920354    2.00617059615729
N           0.93417059231239   -0.15663131948798   -1.74711553270121
H          -0.04243394482427    0.22892641315462   -1.81209830374100
H           1.34470208508605   -0.23506646209905   -2.67131755410185
H           1.51039380712780    0.51647736395523   -1.12459507376923
H           0.85492724588355   -1.11129092095970   -1.28977798222748
