    26
        -50.45955556  Gyration_radius:  2.58779102085 Dipole_moment: 2.733
 S           0.97957669778667    2.06085343790703   -0.93411232267024
O           0.50915538984444    2.85232133346172    0.17658383455516
O           0.02880704224272    0.96411382552786   -1.21743675694192
O           2.31985131229790    1.54346945814554   -0.78439773899986
O           0.96878076993964    2.99917657714947   -2.20983160147433
H           0.34222705462703    3.67863997608380   -1.97742800324246
H           2.46257344110478    0.49094037374090    0.42051568864201
O           2.41122888268601   -0.17893327928264    1.15281616088981
H           3.25680720893502   -0.14324971678409    1.60223727559274
O          -1.14469629485682   -2.75891080523749   -0.14022601940745
H          -1.06954396965247   -3.68823241299847   -0.35646360977477
O          -2.46323211871091   -0.26103194765440   -0.96458796622412
H          -2.19775983856748   -1.17471484288132   -1.12565278666016
H          -1.70023923796112    0.27655087358925   -1.22220238935606
O          -2.28490116602130   -1.02339237143712    1.62109681192578
H          -1.93220809808095   -1.85729221650874    1.26413953550283
H          -2.70192776616986   -0.61456043144127    0.83619777041864
O           1.06108052235687   -1.52591737996256   -0.95835426280161
H          -0.30504166683382   -2.33782496790281   -0.44605909213621
H           0.76645720920991   -0.64892695748770   -1.26423168722572
H           1.70822357599942   -1.34780260564926   -0.26415613977788
N          -0.20662134287899    0.53195878064240    1.39250843045884
H          -0.22032616080870    0.65671938895317    0.34682402358952
H          -0.27406114192016    1.47683982932806    1.77008848436755
H          -1.03379095392935   -0.10172966767809    1.66227318186404
H           0.71958062934632    0.13093572837891    1.61985920891110
