    26
        -50.46290492  Gyration_radius:  2.46790038545 Dipole_moment: 5.400
 S          -1.71690722415774   -1.14004122340656    1.02687534546283
O          -2.82152088572759   -0.56754675871620    0.31705937377599
O          -0.96771224787354   -0.12218990792334    1.78247499855266
O          -0.81123990643231   -1.90039444256013    0.16922730282692
O          -2.27629124329094   -2.15709966013497    2.09880721410136
H          -1.50304286207130   -2.54889096071504    2.49712063470941
H          -0.98258999062447   -1.03898344751903   -1.20383250215098
O           1.61008541516375    2.14542216914460   -0.34802648976596
H           2.20078915101029    2.83396444819576   -0.65375380490294
O          -1.16516547253358   -0.35977820062312   -1.90109017453528
H          -2.08307603485637   -0.51036511048029   -2.14098565463589
O           1.75068788369836    0.21599665195526    1.80098551693284
H           0.79902365364958    0.08353688131836    1.94611065756528
H           1.83051955638402    0.99496829934289    1.23511431714194
O           1.91455130579590   -1.70965207592840   -0.10401999341079
H           2.06873580651682   -1.12669826648777    0.66650056523615
H           0.98412995233760   -1.97528949435506   -0.03035687995283
O           1.66961987374494    0.13658644516362   -1.96202161046171
H           1.71313889696794    1.37598967965397   -0.99463986023177
H           1.89302873856670   -0.61803939428075   -1.35362942325374
H           0.77788010406321   -0.05301635266512   -2.27442586105192
N          -0.98572457055447    1.64241257159814   -0.12025736080111
H          -0.02175460575534    2.05088637813026   -0.19572680524974
H          -1.02888850828309    1.03595937289385    0.75624532888103
H          -1.71430410542039    2.34770418710551   -0.09817761806677
H          -1.13397266015495    0.96455822080961   -0.91557722647347
