    26
        -50.46051504  Gyration_radius:  2.59652776624 Dipole_moment: 3.768
 S          -1.33590784261069   -1.75381036645429   -0.83274924439626
O          -1.07530863522864   -1.27887744796222    0.53114586317405
O          -2.71598070067628   -1.76993725345683   -1.20417008649711
O          -0.85608153214326   -3.29093341068236   -0.78445664864510
O          -0.44702499289015   -1.10350979748194   -1.78155389126109
H           0.48169012490281   -1.74978244904313    0.86496025673476
H          -1.56895434045487   -3.77013566137462   -1.19653402271735
O           1.45322439831698   -1.86489162362806    0.96986781000750
H           1.64330590042326   -2.73164663505121    0.60809894758991
O          -0.06880564075818    2.21533201842809    0.68395651528967
H          -0.92195090277798    2.05116181355587    0.24625150485347
O          -2.21263629818122    0.98320142523513   -0.45578569836497
H          -2.81293584323652    0.75374554163382   -1.16775385328498
H          -1.95336193802664    0.13561159924582   -0.06750493476392
O           2.22694769468687    2.96054995209464   -0.88539240313702
H           2.43660214276568    3.85150492108189   -1.16664463068737
H           1.46224311392469    3.02935280866041   -0.29691617888870
O          -0.17437812939241    0.31572994814994    2.58123485065094
H          -0.69454737414485   -0.25647378519251    1.99562488929631
H           0.62723890508766   -0.17797328785551    2.77035568768076
H          -0.13571353732454    1.74674197929674    1.54218664016151
N           1.35572889851766    0.34249207632767   -0.59902142744672
H           0.66259098680849   -0.17703967009330   -1.21358998993390
H           2.07293374590990    0.83352859073799   -1.13044897043009
H           0.81166459225651    1.07385862947262   -0.06024171678793
H           1.73941720426206   -0.36779990562351    0.04908075181632
