    26
        -50.46051547  Gyration_radius:  2.59614212372 Dipole_moment: 3.815
 S           0.92227437594070   -1.76222594216446    1.26231045247034
O           1.03069142871575   -1.93194645075734    2.67723853448340
O          -0.43889318662673   -1.50585027662348    0.77856016983514
O           1.28364222938522   -3.18536111658207    0.59928599589404
O           1.86177435967183   -0.81747005968713    0.68003173243793
H          -0.37860134668001   -1.77862780589840   -0.85831437679945
H           1.68949813956997   -3.67690380795387    1.30729769204736
O          -1.13402226863086    2.01350112647911    0.18858863217019
H          -0.83504970939483    1.79876918026371    1.08908281832182
O          -0.27892018936655   -1.75543155142559   -1.83692147152312
H           0.27988589790307   -2.50428493146143   -2.04949895797761
O           0.63428306550182    3.38484551097986   -1.62270200358289
H          -0.08378212892090    3.22359845352949   -0.99487109060013
H           0.75058595960940    4.33429391215183   -1.66747779131006
O          -0.17171686839128    0.68653220819141    2.36303737113759
H           0.44933918204916    0.49822388461943    3.06925959752150
H          -0.31849375641666   -0.16550914718249    1.92848426471147
O          -2.58020142006352   -0.18971049218457   -0.33447414274300
H          -1.99268699027218   -0.72132786787641    0.22505243231387
H          -1.87272467344052    1.39244747085178    0.01739653234052
H          -2.51110252150456   -0.57506872931424   -1.21135074955223
N           0.75141273626910    0.65467534984016   -1.14653314889546
H           1.28986554853544    1.34194567352322   -1.67157301667157
H           0.34796875636449   -0.09087509251473   -1.74067724095018
H           1.32397926248286    0.15183000708350   -0.40627804871832
H          -0.01900586230061    1.17993051408599   -0.64495417630292
