    26
        -50.46051543  Gyration_radius:  2.59631825937 Dipole_moment: 3.782
 S          -0.43576434848781    0.23108608456360    2.30367783181357
O          -1.64793531566712    0.55194701636606    2.98965215222841
O          -0.53244096984474   -0.91752009975201    1.39568517934974
O           0.60570556118343   -0.27343459622280    3.42434149199705
O           0.21863043972902    1.35126982849460    1.64746147775068
H           1.03853688913721   -1.34756041927738    1.07221313466714
H           0.19565252082226   -0.03123939444245    4.24948997093036
O          -1.01288969669576    0.02185132822308   -2.08658527912694
H          -1.67886251831968    0.37157864514388   -1.46962550153035
O           1.95935976694103   -1.46257542235479    0.74503260977041
H           2.51356207750761   -1.37869266211511    1.52228988557454
O           0.95569259016557    1.78926130696048   -3.22298834204281
H           0.82467253118410    2.33359997324098   -3.99985332564237
H           0.16772701619365    1.23460151917181   -3.13792289025820
O          -2.35934112552367    0.68939456393705    0.18383805621788
H          -1.83034834049291    0.06656813912869    0.70214363533387
H          -2.73758527842615    1.28798222694433    0.83072850544071
O          -0.56159525115124   -2.36607391346723   -0.94039933392740
H          -0.98115767294577   -0.93958000128644   -1.89895353446941
H           0.34439268607727   -2.68101995216958   -0.89476824069926
H          -0.74668925221830   -1.99310536365074   -0.06428978070496
N           1.16534010412407    0.70114352624914   -0.68033223207069
H           0.80409035391454    1.11416334610156    0.22920808060901
H           0.32216419170301    0.39948962603726   -1.24522508874731
H           1.68196615488566    1.37124103955360   -1.24780627236492
H           1.72711688592649   -0.12437635547259   -0.40701219017063
