    26
        -50.45882473  Gyration_radius:  2.63372838753 Dipole_moment: 6.264
 S           1.63379831317755    2.06528602990651   -0.80105778583059
O           1.96338763147725    3.17250028041020   -1.64060763325623
O           0.58717060463194    2.30900407195733    0.17632279008570
O           2.96960772110911    1.76949830426517    0.06567438943155
O           1.38331951306650    0.80235655345017   -1.50290779731213
H           1.41987768896009    0.09257717536687   -0.07749527032362
H           3.49019901433193    2.53392919235300   -0.15708030788794
O          -1.95189359794602   -2.56622189648491    1.42740891910466
H          -1.86145188691783   -3.09862274246056    2.21831582420322
O           1.43156550409537   -0.45666809252832    0.74653470200952
H           2.19733893834927   -0.13775514602782    1.22820350086521
O          -1.84325240890848    1.51873876852232   -0.11764087320049
H          -0.91157850296222    1.85867182035602   -0.01427629438494
H          -2.40048961876980    2.29633591200806   -0.16561411165007
O          -0.98547056731533   -0.24406564799082   -1.98841713269615
H          -0.10400182974855    0.19044042611568   -2.01808044982759
H          -1.51246020165755    0.33427560784277   -1.40360714120298
O          -1.09435961302453   -0.15118152952259    1.93966701923879
H          -1.53088748536357    0.47797391518268    1.34147522101923
H          -1.75326579148432   -1.62806390137486    1.70055710050248
H          -0.16215979637110   -0.14130814818237    1.66509051324339
N          -0.18591834573951   -2.23089941427380   -0.52738640420238
H           0.58628597471693   -1.76961318445196   -0.01463223544566
H          -0.59758830303381   -1.46195834430416   -1.18255038017591
H           0.15118553475769   -3.01830174497572   -1.06919788164059
H          -0.91895848968756   -2.51692826513991    0.17130169924183
