    26
        -50.45955567  Gyration_radius:  2.58787480521 Dipole_moment: 2.729
 S          -1.08828853332121   -0.05208787985346   -2.21264429149803
O          -0.09858572626515    0.68029583899135   -1.39332915321098
O          -2.40228204333925    0.06711523457396   -1.62920452052612
O          -0.64972187890332   -1.40851745771537   -2.44509974354007
O          -1.13435624782274    0.68219172408425   -3.61498035030573
H          -1.86312943189954    1.28909614029257   -3.52115402542556
H          -0.45729949833959   -2.25388400722159   -1.09308888954290
O          -0.32528164391662   -2.65193132061278   -0.19205601144764
H          -0.54104803907615   -3.58135437810276   -0.28062990980060
O           2.25554587719669    0.49841981793548    1.89987439024655
H           3.14378236096236    0.32390917732911    2.21061287598629
O           0.57720510674154    2.52875017507553    0.58170515458088
H           0.33951842848816    2.07029662410780   -0.23736724991832
H           1.43884460445680    2.17388236243252    0.83216077840515
O          -0.25163248323570    1.13780829033040    2.74440668128315
H           0.66123555884776    0.80120895912494    2.77343000377160
H          -0.17272722726605    1.91813482665907    2.15961778742943
O           1.87359025477507   -0.85614071343282   -0.35285558780265
H           2.14640558135785   -0.02911371733596    1.07183861294965
H           1.38150209791516   -1.68087477705104   -0.25162989283902
H           1.30625760041613   -0.28634718257015   -0.90326272362246
N          -1.24181064841145   -0.28674108262172    0.80035823184732
H          -2.23596006047702   -0.18875309920520    0.59540870942605
H          -0.97254121929677   -1.28434583619008    0.75218697169538
H          -0.75210372376248    0.18576745050484   -0.00348460874059
H          -0.93711906580713    0.20321482045505    1.70918676061524
