    26
        -50.45603210  Gyration_radius:  2.63415508032 Dipole_moment: 4.948
 S           0.77909914154330    2.02566779914847   -1.49511570431702
O           1.86410249572145    1.07275228620396   -1.75410802227987
O           1.09572581247142    2.97666191738249   -0.47095422219787
O          -0.46664362869102    1.30061111946336   -1.22267857744846
O           0.55144210925742    2.80890592109253   -2.85242714138890
H           0.39896227119962    2.12633834501679   -3.50125301757111
H          -0.51697168404704    1.37716041054631    0.42127209860398
O           0.72783240215849   -2.20725807529218    0.48058532054220
H           1.05630580989125   -3.05961678522453    0.19363945235842
O          -0.22312262855482    1.45071969205592    1.36324913122399
H          -0.00821274540527    2.38472847794843    1.45429888027508
O          -3.05307998744823   -1.52239837931371    0.33050053672666
H          -2.50104078466156   -1.31680931434989    1.11683600310478
H          -3.55053471941168   -2.31168357065698    0.54639826290894
O          -1.19593964898594   -1.05891187507775    2.23388428551086
H          -0.98021172085943   -0.12507841058518    2.10722493051490
H          -0.49085271097209   -1.55928197583485    1.79904561138608
O          -0.89210465042567   -1.33809479135134   -1.29920098671947
H           0.09197260970568   -1.89328101684573   -0.25253101564128
H          -1.76887470867153   -1.41431165763676   -0.86953433766013
H          -0.73699444969961   -0.37542189566468   -1.37652084124268
N           1.99219969820590    0.12443160690769    0.63073050986616
H           2.06307149518689    0.48220071360158   -0.38500110873043
H           1.66083798911475   -0.87365878344349    0.60691896579616
H           2.87443930370168    0.22827617099007    1.11976888642986
H           1.22859290964844    0.69735206092912    1.07497206994776
