    26
        -50.44637530  Gyration_radius:  2.50011084432 Dipole_moment: 6.921
 S           0.32422514239994    2.33494768747579   -0.57629354606273
O           1.28200511869180    1.34919123499003   -0.11101547139397
O           0.52092451280968    3.66095330188312   -0.12334248569134
O          -1.09142564930241    1.81513684797607   -0.14972445901804
O           0.22108345565249    2.26837479254311   -2.10415529489547
H           0.62821206623507    1.39377564379537   -2.42228017142770
H          -0.99778627584712    1.74495409022988    0.85451429010776
O          -0.08101484666142   -1.98273763087387   -1.54213055578435
H          -0.02883343637542   -2.89727866436421   -1.82208954397853
O          -1.17687800459923   -1.11441270113314    2.24540355031603
H          -1.89168425906923   -1.29593504759656    2.85749594759152
O          -0.38272584934450    1.43491238572375    2.25447203852688
H          -0.61296125162127    0.48069957276854    2.37016185506773
H           0.54667020356413    1.47803550002040    2.00942578651116
O           1.39745784229376    0.05780049792670   -2.51471951391085
H           1.82720633139887    0.24091332941479   -1.66770341730911
H           0.79254550662929   -0.69442907155156   -2.34549896953446
O          -2.15656017996583   -0.79792973340287   -0.18616861247591
H          -1.54577429117281   -1.25941419211006   -0.78787663185042
H          -2.02069494509536    0.14604686616114   -0.34377110044926
H          -1.59419686102060   -1.05824174097640    1.34391498216066
N           1.29480005788311   -1.47288394844441    0.63980345518498
H           0.66764813796341   -1.59322232709200    1.42850701725960
H           1.42222675014973   -0.47146747424673    0.50552716504739
H           2.19089728047051   -1.87326735293174    0.88504243346740
H           0.46463346396419   -1.89452188617679   -0.69749873747253
