    26
        -50.46507302  Gyration_radius:  2.55369222518 Dipole_moment: 4.276
 S           0.99940564126630   -0.02488429246217    0.03748365772318
O           1.58791231972243    1.18388061366571   -0.73377600742116
O          -0.30560127222386    0.39535532923331    0.56627074430548
O           0.84648091731776   -1.13716455522904   -0.88981938864777
O           1.90251584499029   -0.33530724321208    1.13937943884363
O          -1.27262613656503    1.32624255774994   -3.28822475052658
H          -1.50508141668253    1.99997654652766   -3.92884960520509
O          -1.01046355644185    0.31224078497646    3.10846723870600
H          -0.85160662521895    0.42259896453918    2.14192993819157
H          -0.71895404200307    1.12920845984626    3.51603323058707
O          -0.94844549692161    2.50601216257298   -0.90329265465248
H          -1.28017629555525    1.76590307901192   -2.40709151210613
H          -0.83317325707856    1.72877410481736   -0.31773592035498
H          -0.07476017902482    2.90367114399944   -0.95182456440075
O           1.20533108266202    0.32536179463235   -3.08530824737117
H           1.52992655545045    0.93754887328389   -1.72077472909947
H           1.07691200468057   -0.53394417286985   -2.65287192365354
H           0.30070839764754    0.64995894535011   -3.29882662043907
O          -0.92823486406636   -2.48656761825798    0.46663810243868
H          -0.14458141054995   -2.28680819376017    1.85731300065978
H          -1.67138036689550   -1.87797985660868    0.43526174748072
H          -0.26242215829696   -2.09877613306325   -0.15135132570907
N           0.45074533803969   -1.85014926982219    2.62054403569289
H          -0.13813022550804   -1.13710861939434    3.10780853704821
H           1.19118061827410   -1.28250880770407    2.08384318661181
H           0.85451859291116   -2.53553456784164    3.24877439131000
