    26
        -50.46507301  Gyration_radius:  2.55376363813 Dipole_moment: 4.275
 S          -0.75385092011804    0.63349660074915   -0.17435897702625
O           0.54093444380032    0.29989709793097    0.43504743812468
O          -1.07466364237683   -0.29782879673933   -1.24685277460266
O          -1.82717693290928    0.49745482650481    0.93548503707320
O          -0.74653464340616    2.02117171598119   -0.62214257730029
O          -1.18092069360466   -3.23988343268077    1.51640261617947
H          -1.47105077582151   -3.82208669084177    2.22011803722313
O           2.66248670872473    1.87036122611090    0.44651476972344
H           1.93212577817662    1.21453369660305    0.53642802345202
H           2.59071983909476    2.44724512578121    1.20844468702455
O           1.29982624684245   -0.43314061940051   -2.32072757316939
H           1.51853781352688    1.15879344596307   -2.24703582534014
H           1.79051463446226   -0.85076502369905   -1.60771617515686
H           0.35571024155708   -0.47985296911318   -2.03419748284094
O          -2.87418613064133   -1.67182830251634    0.15364025957586
H          -2.33705992495380   -2.35824727365271    0.61150267516455
H          -2.35991306057806   -0.33980444124373    0.70449826460329
H          -2.40849342033335   -1.49079787384587   -0.67837897769288
O          -0.10504714463386   -1.04891680439603    2.62403433228804
H           0.25494506837893   -0.59108212551185    1.83598347570772
H          -0.86273780518008   -0.51888211373360    2.88624719076024
H          -0.68460337897187   -2.50723099402163    1.94842853881490
N           1.47185931348568    2.16417866043543   -1.90836428069438
H           0.49849964901447    2.24416123677419   -1.45590352017203
H           1.62160920289341    2.83906988690237   -2.64969961219229
H           2.14846955345448    2.25998396177642   -1.11739756971909
