    26
        -50.44637523  Gyration_radius:  2.49997650633 Dipole_moment: 6.925
 S           0.14969532961463   -1.81599095621769   -1.60288517202179
O          -0.21673464620427   -3.13789708708741   -1.94999312336779
O           0.80766785329858   -1.64814965425707   -0.32046829495096
O          -1.11140718789555   -0.88602048252609   -1.58053355848704
O           0.99094313787502   -1.15546027802218   -2.70093383388732
H           1.66598351153647   -0.53254932985546   -2.26719356007726
H          -1.62120433388179   -1.23939787291918   -0.78201195952542
O          -2.04294548039869    0.63446714598794    1.75828924314606
H          -2.93089888435874    0.89559598008511    2.00705751249239
O           1.23323927915250    2.18953096638058   -0.01515313737318
H           1.61342728193495    3.00089601083020    0.32338240384350
O          -1.91295228886306   -1.79029163396749    0.64791426130678
H          -1.04842163085602   -2.17337490232555    0.82578484314816
H          -1.98029680434673   -0.95759294236341    1.17618182142330
O           2.57729846275450    0.20633798415662   -1.26295988942595
H           2.14857494436456    1.03494385413425   -0.96295920789155
H           2.37231597445642   -0.45221248084162   -0.58481419327397
O          -1.41942796286083    1.72790489588341   -0.56287416202884
H          -1.40009383510535    0.96357343643933   -1.15437073952236
H          -0.49631588046902    2.02739972265736   -0.48334992041448
H          -1.84216149656136    1.11464451873100    0.91029713912420
N           0.91054335428348    0.33523007249966    1.82123165605415
H           1.54041101986704    0.14234609325087    2.58899984491090
H           0.89850800215735   -0.47925555649067    1.21008415219656
H          -0.02541120244429    0.44206195209407    2.19856879519509
H           1.13966348289807    1.55326055378910    0.76270907941646
