    26
        -50.44637527  Gyration_radius:  2.50007634067 Dipole_moment: 6.923
 S          -1.61418102068260   -1.32040171102784   -1.24205542378104
O          -2.45211247878744   -1.42513727328488   -2.37742328629172
O          -1.81479889308839   -0.15439044128848   -0.40184867886523
O          -0.10757018362831   -1.30385067192896   -1.67294994758102
O          -1.66688270065520   -2.58769050473337   -0.38135624893990
H          -1.56190851163804   -2.32610750379584    0.59452121339703
H          -0.03173328112684   -0.41237005404707   -2.14410105438164
O           1.84405006803584    1.85025017981257   -0.91847301531883
H           2.60581381441997    2.15028905277767   -1.41670104651488
O           0.97697057296904   -0.47200962129075    2.26640499152904
H           1.40460554021116   -0.29992351091252    3.10602139331178
O          -1.47871769344750   -1.54499470528894    1.92449485122825
H          -0.54601972981033   -1.32836290341315    2.13294378750378
H          -1.83693953395943   -0.75852161146375    1.49003775967047
O          -0.21125256722223    1.10622965352984   -2.45184048074754
H          -1.03228234082904    1.24735960270225   -1.97035576751479
H           0.51632123390930    1.50869453624156   -1.91740202268272
O           2.20324940147593   -0.66085371252298   -0.18515504455221
H           2.05558379123212    0.92367370991685   -0.62397936095722
H           1.55550163501808   -1.13067800737794   -0.72737627963440
H           1.88074732779168   -0.72507504439541    0.73134126003981
N          -0.19320736178085    1.64338309032986    1.23162261962027
H          -0.86284055300916    1.16541634688476    0.63142529418746
H           0.57303350965872    0.39725839184709    1.95036283689082
H           0.48290171676385    2.09744865152708    0.62619629811028
H          -0.68833177181659    2.36036409119405    1.74564538226065
