    26
        -50.44637526  Gyration_radius:  2.50005061027 Dipole_moment: 6.920
 S          -0.72890014165717   -1.92655888321258   -1.28242635899377
O          -0.62342245376109   -2.67463368188490   -2.47885500332832
O          -1.07319630754341   -0.52471906315949   -1.43044575668518
O           0.62121507004187   -1.97153756298901   -0.48796139455185
O          -1.68685798568762   -2.58705049937714   -0.28463783635940
H          -2.16410787154253   -1.86102806308526    0.24175399861491
H           1.23667747964785   -1.43707506578711   -1.08600709096300
O           2.43451157663864    1.31813489037141   -0.03086781244009
H           3.38181447626560    1.40518948111174    0.08567840104903
O          -0.90162621509982    0.83890253883558    2.19073488891813
H          -1.08784110067098    1.45406292274943    2.90093128409198
O          -2.73387251688840   -0.51396690351864    0.73776885981362
H          -2.48170525568266   -0.09444333976742   -0.09653365058044
H          -2.14370225526021   -0.12490772037315    1.41642382322392
O           1.74829276388179   -0.30828865841758   -2.03414735845833
H           0.89835356676409   -0.03116504514348   -2.38983630739512
H           2.03681238957578    0.38253465975580   -1.38873948669047
O           1.48863965660768   -0.42770807563761    1.70976950285590
H           0.65217679287734   -0.05520835606876    2.04108591573593
H           2.12599225492542    0.69420581837122    0.68011763275631
H           1.24160244569019   -1.17181638828661    1.14440375335118
N          -0.45179992027761    2.00983401934145   -0.12033607307284
H          -0.67945348056742    1.22721133400916   -0.73088527527161
H          -0.73258798529351    1.38297671683330    1.35754693773519
H           0.54840625514654    2.16584552998048   -0.19142720602702
H          -0.92542121815033    2.83120940533210   -0.47310840731423
