    26
        -50.45364408  Gyration_radius:  2.4637825413 Dipole_moment: 7.668
 S           0.78057982961247    0.81712559152302    1.95182967696202
O           2.01487273061025    0.10370161171313    2.17718799166285
O          -0.15332357429402    0.09672896255316    1.09716965154739
O           0.95572156964123    2.19167688076412    1.52604222273099
O           0.04396292919903    0.88445024364959    3.37324163610551
H           0.76937640252065    1.13820888510864    3.93324824520262
H           0.30439121873804    2.46826372927502    0.07646341997398
O           0.92095732308000    0.45779994079929   -1.99941429469471
H           1.44373137517757    0.79522805083346   -2.72758664739598
O          -0.08949851209027   -2.89566373141759   -0.10452241038232
H           0.28025484841436   -3.68584693452551   -0.50219634031607
O          -2.36948878232693    0.77631449720495    0.11585800610559
H          -3.06365922692497    0.62183740267268    0.75776081008033
H          -1.50667543466272    0.59607559094282    0.60426683213891
O          -0.15842341222712    2.46769261430386   -0.79990571281225
H          -1.06951159210245    2.22417779236465   -0.60101828879131
H           0.55728634354922    1.26509709390265   -1.51687583971266
O           1.99920339074532   -1.34816172333700   -0.03090426400067
H           0.69770109718970   -2.30471854257223    0.09111359645097
H           1.75143901748164   -0.66639552449120   -0.67136215574328
H           2.07153806850327   -0.87918738708726    0.82759407615169
N          -1.25854759316416   -1.03468575343525   -1.53844884281429
H          -1.79683240059225   -1.37504884934572   -2.32727851807969
H          -0.88349154241964   -1.83239905792439   -0.93284851894846
H          -0.41849355658430   -0.49175121717653   -1.84798063199583
H          -1.82307049706916   -0.39052015629148   -0.93143368943541
