    26
        -50.45099165  Gyration_radius:  2.7136629083 Dipole_moment: 4.693
 S          -2.63431097782775    0.60054156275155    0.45687269280984
O          -2.11018436443917   -0.57631294519314   -0.18692873049340
O          -2.32252519418041    1.83479775381079   -0.26957850606069
O          -2.25152079918432    0.71374572311381    1.85952491764003
O          -4.21853736342918    0.47901506099927    0.43686614766601
H          -4.49883394058072    1.29365804719622    0.84377683584534
H          -0.70948832182690    0.70234170348584    1.89295499618555
O           0.29157532162329    0.80183015203956    1.88674427315836
H           0.48548747401795    1.39639108529280    2.61408477697758
O           1.80611044550614   -2.19219067965883   -0.68866936277991
H           1.87691904522157   -3.14309097613393   -0.78011333159945
O          -0.21078454976077   -0.85940565248067   -2.00930147273166
H           0.43112371432887   -1.46514281514859   -1.59745089810038
H          -1.02486404945897   -0.92257467316805   -1.46827002924383
O           2.63932794132735    0.37074079635859   -1.61610722196908
H           2.48367660504502   -0.51135483920547   -1.25052652021488
H           2.64358287172558    0.25327208471690   -2.56750452697120
O           1.53733550510825   -1.60499321155526    1.89211788698785
H           2.37275818124399   -1.36135596971334    2.29500709877605
H           0.97483174796478   -0.80460621577044    1.91693500426250
H           1.65932145002075   -2.01716405872707    0.27102747616283
N           0.17521925639922    1.42871745763975   -0.79452519569303
H           0.78754865628661    2.11675000368101   -1.22060878024364
H           0.15103644971103    0.53267880576570   -1.38537409301743
H           0.50271076137841    1.19117568298460    0.15629218677429
H          -0.83751587620627    1.74253610692701   -0.68724561413450
