    26
        -50.45364401  Gyration_radius:  2.46360821135 Dipole_moment: 7.667
 S           1.76068726123542    0.00578471985242    1.40839447292007
O           1.05661722115904   -0.29591755881210    0.16948290989437
O           1.34190695228397   -0.81715877274570    2.51772761262552
O           1.77412424293489    1.42728000202139    1.69233265008006
O           3.28135788421900   -0.39947179828523    1.10734500481779
H           3.63660402012857   -0.40989879521230    1.98933432513549
H           0.77437247065286    2.24939617484533    0.72972301284951
O          -1.92460333623135    1.08902222203129    0.40690676701793
H          -2.62906228032144    1.63242849675697    0.76164356247191
O          -1.00549282277922   -2.65091113034769   -0.60579031946291
H          -1.73346074221067   -3.26558871544795   -0.49875773565886
O           0.13741780367852    2.59486282153949    0.05359020536004
H          -1.11773833069559    1.68899651391579    0.33147227822021
H           0.52201657759195    2.35548977631630   -0.79710135890079
O           1.10088619661650    0.83177119820195   -2.08059464554591
H           1.20610724124230    0.43302723084534   -1.16119102367430
H           1.84205433251089    0.50058639520275   -2.58927756842043
O          -1.09430779038426   -1.37062513964931    1.65594915792828
H          -1.36642005972635   -0.48939514689471    1.36308582398128
H          -0.88694585196308   -2.22179288428425    0.29367513856163
H          -0.19887219506634   -1.24866530921735    2.03742199516511
N          -1.31191428638038   -0.32730814535265   -1.78622805794326
H          -1.67573952785737    0.23612519649291   -0.98222646915719
H          -1.14859137455440   -1.31191435364764   -1.40211760042586
H          -1.95705065808399   -0.32494391827465   -2.56831483555838
H          -0.38395294801190    0.08882092011928   -2.04648529225869
