    26
        -50.46590910  Gyration_radius:  2.55422747536 Dipole_moment: 2.231
 S          -1.78592550375657   -0.08499714869534    1.21765207668378
O          -1.67931547384183   -1.03046308874010    0.11133421103309
O          -1.50631886323424    1.27349440112037    0.78771858578645
O          -1.01490547552357   -0.49873174591092    2.37161321892313
O          -3.30347928941572   -0.08642129188558    1.67490523814876
H          -3.37015476401625   -0.86596976169071    2.21726830022021
H           0.13354817506850   -1.58924679460930    1.75291855937615
O          -1.09255968778412    2.52341895095690   -1.51700650528819
H          -1.42891420712016    2.17640237208937   -0.66492811550265
O           0.67876976367480   -2.13312604243641    1.14883458183744
H           0.04921654522914   -2.45084665002926    0.49500325140620
O           2.17672987834500   -1.30027574683493   -2.63018713946253
H           2.82135024142085   -1.94611230062784   -2.92033735570071
H           2.48719722978418   -0.96323063834466   -1.77919221399446
O           2.05102803080734   -0.15289161563673    0.01394931561280
H           1.86879817360585    0.55668104713204    0.66868884647518
H           1.72527057982829   -0.97188224956367    0.45618126599425
O           0.94942040630120    1.48328118560484    1.81772248996519
H          -0.56640473676388    3.29429646764147   -1.29586580461930
H           0.04605923271439    1.54993745024812    1.45454897237715
H           0.84402559972799    0.93831066978189    2.60285537092146
N          -0.02475671796990    0.05800753375043   -1.62393000259968
H          -0.35869756192464    1.02634081053456   -1.81855847134309
H          -0.76525272129597   -0.43330644976692   -1.05911841371965
H           0.22025737113857   -0.45505575634400   -2.46992202142881
H           0.84501379509087    0.08238637237132   -1.01214824110082
