    26
        -50.45137813  Gyration_radius:  2.48712520692 Dipole_moment: 4.468
 S          -0.43204305760640    1.63728409822252    1.16896793248936
O           0.48404060791997    2.33028639917532    0.29760950082524
O          -0.03099433053384    1.52652181624011    2.53605354521909
O          -0.68864752075251    0.23299129909760    0.58559329418824
O          -1.82743519341483    2.26574932482362    1.06984875857184
H          -1.98356917642103    2.27520915740437    0.07654918185912
H           0.16318141923712   -0.34686658687101    0.56686528103718
O          -0.65994153630407   -0.21186307592428   -2.41046689924116
H          -0.61629914609591   -0.17045020925149   -3.36768912582098
O           1.35113323158552   -1.25966128916332    0.62275869613458
H           1.34231765238923   -1.36617962541288    1.59673116028019
O           0.98931246841018   -0.87478794670991    3.24068245844141
H           1.67807387285864   -0.69360477470995    3.88296019979248
H           0.54174207056341   -0.02007263122413    3.08474226369600
O          -1.62927417615792    2.16779183696668   -1.47784460370363
H          -1.46954264234534    1.24226110857773   -1.76442765750241
H          -0.75279356344377    2.55474501777118   -1.35834885728792
O           1.65760913545629    0.61923011813596   -1.42724156401315
H           1.37920003390175    1.35300662760494   -0.84903703599878
H           1.94004053961861   -0.08361636951528   -0.82816260882523
H           0.23766130319362    0.05479222517256   -2.08361772908125
N          -0.40305081030577   -2.75073798669731   -0.69867014893992
H          -0.66971458582110   -1.96514716877757   -1.28866428504785
H          -0.25576077966617   -3.55510852200387   -1.29524962304418
H           0.84521588557397   -2.01276460485720    0.21414634471627
H          -1.19046169186948   -2.94900821814496   -0.09408848871457
