    26
        -50.46321175  Gyration_radius:  2.59882296657 Dipole_moment: 2.417
 S          -1.70649559394243    0.81877097684491    1.26811595646896
O          -1.25420273561085    1.68366093446644    0.19636904500969
O          -0.72326090308451    0.60664178349832    2.30689741380203
O          -2.23403478868111   -0.44500085879093    0.75234270762386
O          -2.92713101505264    1.57408245857418    1.94069739782161
H          -3.33048185885869    1.96790654878790    1.17475727186734
H          -0.99496916991461   -1.52004020439835    1.19283512281984
O           1.20282990204273    1.36553056617486   -0.68934324739898
H           0.28119518937938    1.64147857580631   -0.48468189850001
O          -0.12445346698700   -1.95570332384503    1.31267947125438
H           0.28423152100538   -1.46726887520125    2.03336250452504
O          -1.99155982111521   -1.16329038502133   -1.75963127132936
H          -2.52336525815852   -1.95945297468241   -1.81069728238975
H          -2.15645328450558   -0.79141047108350   -0.86072841556350
O           2.79267242649288   -0.17547719299395   -2.52801814214435
H           3.53166721003535    0.16008874117225   -3.03595641828049
H           2.41482364385144    0.58078023849107   -2.05768779266235
O           1.83250554279225    1.01030148596353    1.88070353575076
H           0.88062756983133    0.86202141868440    2.08860719829265
H           1.62730139878456    1.30374296492192    0.19351564623049
H           2.11718327745052    1.72037234097738    2.45749892252192
N           0.61207994060699   -1.18961126510892   -1.12627194359039
H           0.84453628702133   -0.16277515213274   -0.98122107458315
H           1.35521494578153   -1.58902565512142   -1.69562037359285
H           0.51348080453470   -1.63440749502272   -0.17910794173650
H          -0.32394176369459   -1.24191518097002   -1.58941638223982
