    26
        -50.45137809  Gyration_radius:  2.48710942844 Dipole_moment: 4.471
 S           1.90562684373700   -0.54080000307362   -0.55757425345239
O           2.30305551994859    0.65132576527279    0.14930457185283
O           2.14638853536324   -0.54157010100030   -1.96616391378475
O           0.40850575582642   -0.79054175271124   -0.28461339085297
O           2.54216042264120   -1.77410392863333    0.09478927857076
H           2.29310642360425   -1.65273098087005    1.06147097971895
H          -0.18952962667326   -0.03790448041800   -0.65615767521911
O          -0.81900443370088   -0.00358211222928    2.37082317031006
H          -1.03592092361677    0.30170829834324    3.25379120297403
O          -1.10196060508253    0.97762886181189   -1.27585495355443
H          -0.94503096307643    0.69343880230300   -2.20030688413095
O          -0.02032130653677   -0.03237422141378   -3.49902454639010
H           0.77950061636512   -0.32021748152274   -3.01666640601001
H           0.29700938731643    0.47335906497226   -4.24958316014285
O           1.76124494326518   -0.90556825097408    2.36955740760824
H           2.12909010736975   -0.05530393451980    2.09761901635239
H           0.78696179020929   -0.78295619385710    2.36296472418272
O           0.14848690110191    2.04155934091772    0.98888871187288
H          -0.51191993567173    0.79678226025452    1.87206950078086
H           1.02033657115585    1.70385235608878    0.71299373863595
H          -0.38068645903882    2.06848307493200    0.18144903753174
N          -2.81859610554697   -0.51340789035051    0.09374181800624
H          -2.20892198018221   -0.51832815676854    0.90898550870949
H          -3.75844228274834   -0.30456434724305    0.40633699307817
H          -1.91546711246669    0.51800737864568   -0.93369275158480
H          -2.81567209350074   -1.45219138796412   -0.28514772497104
