    26
        -50.46590962  Gyration_radius:  2.55483481433 Dipole_moment: 2.219
 S           0.87329652153171   -0.69550765578225    1.85523512896741
O           1.68943558931514   -0.79218093508688    0.64962689286509
O          -0.44945760022109   -1.25882131084440    1.65074620359617
O           0.85470396700659    0.64561711751858    2.40151841260171
O           1.56467098773355   -1.60946714269924    2.95000953780990
H           2.26381590096983   -1.05853990296104    3.28782092491718
H           1.30533952237420    1.64463659160574    1.10120556605366
O          -1.69166976388660   -2.63133487545996   -0.25121046298790
H          -1.24962766651188   -2.30959970805450    0.56169152655315
O           1.54978515764003    1.97297501614767    0.21217098114640
H           2.14044756560240    1.29493208522574   -0.12854982185185
O           0.20089162355715    0.83368501805458   -3.55319084840960
H           0.45476095903846    1.43212088707788   -4.25639279645586
H          -0.25589211375790    1.36641876543755   -2.88855954217854
O          -0.81074487254832    1.62141174920958   -0.96958382333401
H           0.05461969677297    1.93603002918343   -0.61663660422751
H          -1.37158837045932    1.52714358214795   -0.16827600387042
O          -1.79601192964114    1.03895313294235    1.44568006469974
H          -1.42869495059616    0.14278082586126    1.56569703095890
H          -1.28305332983263    1.58246812228972    2.05073065792586
H          -2.62348325506684   -2.43414588090794   -0.13759483318920
N           0.00411587518927   -0.87087350891761   -1.37154944254952
H           0.76786847352184   -0.94192730423309   -0.65007544552303
H          -0.69519985483008   -1.61859939656508   -1.17428588944492
H          -0.43483806066400    0.08936151926892   -1.24271252276426
H           0.36650994895317   -0.90753681554353   -2.32351492481571
