    26
        -50.47003853  Gyration_radius:  2.4187070888 Dipole_moment: 5.116
 S           0.65329851243532    0.56765957116455    1.85729477148448
O          -0.79011406464003    0.46030369299629    1.90238568831900
O           1.11168789726667    1.57461428174657    0.92235079093541
O           1.31150393321492   -0.72306330349219    1.62871979736011
O           1.13839561896226    0.99753696048700    3.30320340809333
H           1.75887511236048    0.30656842194848    3.50798920636997
H           2.19234268955433   -0.53849843200203    0.23668541502340
O          -1.50693272806400   -1.64559510937793   -1.22647822587237
H          -1.98579638029409   -2.39975669943892   -1.57177539503659
O           2.56947651683832   -0.14895460376117   -0.58416428103401
H           2.60235936175447    0.79148214862611   -0.36766246962962
O          -2.40040569731198    0.90311694488196   -0.22194798902494
H          -2.33045799859518    0.02786558168291   -0.62621463146305
H          -1.95549990882242    0.82906928168057    0.64265962756100
O          -0.33112702390434    2.20653480957560   -1.22666108535050
H           0.21351540941420    2.17890027345179   -0.41185313586676
H          -1.23239679731208    1.94066205563172   -0.92492606720857
O          -0.90805043381269   -2.09726033666951    1.26259466510301
H          -1.27167085216500   -1.87637352909047   -0.27984797843153
H           0.04886937684459   -1.94547270953668    1.36018666496615
H          -1.26775681182640   -1.28747196898530    1.66441836005296
N           0.47753577662646   -0.04395243531579   -2.19770822510944
H           0.66434328002293   -0.08983820163941   -3.19288004666939
H           1.36258517253860   -0.20300967380751   -1.63206336382448
H           0.12338370479033    0.94858458747311   -1.90140767190300
H          -0.24796368587397   -0.73365160822846   -1.92289782884378
