    26
        -50.47071377  Gyration_radius:  2.41591949776 Dipole_moment: 4.134
 S          -1.40258025392827    1.13274381441985   -0.92752199874361
O          -0.15890313764933    1.86431307452144   -0.90615057554201
O          -1.96489727508377    0.87368905520942    0.38743244772815
O          -1.29989593730621   -0.09578033918989   -1.71810573036718
O          -2.45018017215000    2.05494556314420   -1.67509948499588
H          -3.27787727129061    1.64061109888243   -1.45664210263868
H           0.24530575062169   -0.13793435104256   -2.28493637599434
O           1.20596299479840    0.03563286280675   -2.41953337796314
H           1.25668792508391    0.99712838791926   -2.37514501476899
O           0.39067009042061   -2.11702058488085    1.32541703467844
H           0.43682316172454   -3.00127989968425    1.69050125697711
O          -0.23385352590841    0.47116233096031    2.42062243039530
H          -0.93449567760916    0.70007217194335    1.78009453476996
H          -0.03639217058005   -0.46360122854357    2.27477303191479
O           1.65233206498932    1.70310473905719    1.03970138194581
H           1.04599270015379    1.40112741360282    1.75716185598211
H           1.04280417267429    1.99804642581115    0.33307059394102
O          -1.91576477076357   -1.78879842604804    0.17565010936166
H          -2.24841362841303   -1.00783596122153    0.64372712753973
H          -1.69904928446630   -1.41210822664305   -0.70100345427844
H          -0.49675945062269   -2.05357466577506    0.86380181646500
N           2.18975234577398   -0.58310659113040   -0.04525884884090
H           3.15404604140563   -0.89560011109525   -0.03490212031483
H           2.07810443867081    0.38267076911904    0.45118168518598
H           1.84572247134498   -0.43645495272576   -1.04195571992005
H           1.57485837810797   -1.26215236942101    0.44311947748193
