    26
        -50.46507307  Gyration_radius:  2.55361158885 Dipole_moment: 4.274
 S          -0.43923177423170   -0.89708865734801    0.00377179613019
O          -0.32174714234798   -1.54721990460682   -1.39840227354010
O          -1.66926342448897   -0.11938248930589    0.05340724911653
O          -0.41233138146592   -1.96536114795882    0.99586498680426
O           0.73347031613878   -0.02831484814497    0.17527567736246
O          -0.43867184861149    1.78996066622338   -3.28705523311758
H          -0.24773987463175    1.99279998104617   -4.20398597536466
O           2.46655820868292   -0.20046893064275    2.15856984263297
H           1.91026172289150   -0.06196747226487    1.35667436432899
H           3.12638027160288   -0.84945327476247    1.90965870976532
O          -2.10424704325183   -0.18425719883322   -2.57243026533515
H          -1.03768148523443   -1.10202444455565   -1.97066232234591
H          -2.38324644833951    0.05644726313030   -1.67461986265983
H          -1.60495917791844    0.59421051803986   -2.91025157977187
O           1.60776253901106    0.37079748517942   -2.29562988074642
H           1.46407605959260   -0.51850017523124   -2.63071234276700
H           0.37638387863182    1.37865319061139   -2.91783929627547
H           1.36563192460480    0.31869262230765   -1.34754790401884
O          -1.01203102958019    1.44826239706933    2.03433064796504
H          -0.28362491407731    1.93350743356829    1.63716346335218
H          -1.40331110770206    0.93252694638206    1.28851582731546
H          -0.41782901851192    0.23642255553668    2.91050526006291
N           0.05761299832901   -0.67754281570536    3.16752847361758
H          -0.19584205706763   -1.34193712553304    2.35944480411021
H          -0.22532678611671   -1.02984743469787    4.07487786803874
H           1.08894659405449   -0.52891515947559    3.08354797528651
