    26
        -50.44038458  Gyration_radius:  2.74172519023 Dipole_moment: 0.963
 S          -2.71301631473823   -0.31414033164557    0.80657643722870
O          -3.30387594740028    0.16973141194066   -0.38724189024418
O          -1.72399985774438    0.52656711794343    1.42802682830437
O          -2.15148440548603   -1.73146057538805    0.64310327871773
O          -3.84126199523484   -0.57170588328231    1.86943621473085
H          -3.39219324724684   -0.76190658989364    2.69039627973780
H          -1.45634298305890   -1.75694341240430   -0.13143698003131
O           1.71351546107662    2.08921976152322   -0.31235162192451
H           1.78506493839440    3.03481778558738   -0.44474555878115
O          -0.44587098153782   -1.76941787397914   -1.18308747741822
H          -0.46338638367313   -2.62898923042931   -1.60931985183758
O           3.37894157183112    0.06665978112108   -1.05955758753039
H           2.81930225549429    0.84316175511300   -0.86155527820290
H           4.17831957586973    0.17124991406635   -0.54104519540170
O           1.01032633317909    0.35067284372169    1.79034976858732
H           0.04454847157585    0.42735633739376    1.77771988452122
H           1.33357864139759    1.06423477365129    1.21840690855284
O           1.68838428317459   -1.65679583998208    0.17127062971065
H           2.35110537706097   -1.17673909407385   -0.36791142730007
H           1.45799749733896   -1.02704115099198    0.89506480669236
H           0.44005828339836   -1.73579611686032   -0.65107757008458
N          -0.63138318341554    1.27129811189188   -1.21905741595642
H          -0.54540806365446    0.32261770865132   -1.56911288834263
H           0.83781577053633    1.80758207725629   -0.71690498267249
H          -1.20783573847009    1.77800696814860   -1.87951969418343
H          -1.16289934865934    1.20775976091923   -0.35642563687557
