    26
        -50.44038460  Gyration_radius:  2.74146565129 Dipole_moment: 0.963
 S           2.09836055113188   -0.86498921503979   -1.71907331521389
O           2.23794426457119   -0.36586183572290   -0.37650514820267
O           1.89110017231758    0.09587963109097   -2.73997953362108
O           1.04250706534357   -1.97636891900844   -1.74540208014228
O           3.39437710365110   -1.69053235642456   -2.04731948042693
H           3.56954531310403   -2.22520849038455   -1.27582243986135
H           0.08813285313657   -1.56908908855998   -1.66025316189503
O          -1.23989387703909   -0.99222701611912   -1.48645174505537
H          -1.86976333078038   -1.53296228276478   -1.96779389261356
O          -0.40032658657295    2.09380270178014    1.68906766758330
H          -0.13389529374704    2.98580957497420    1.91302092348187
O           0.68625574589839   -0.49637978050191    1.90679925882116
H           0.40899094325340    0.42708417249863    2.01222784507474
H           1.31627210165764   -0.49403641014559    1.17069755174810
O          -2.78571757722103    0.82136330428266    2.02623457167063
H          -1.97823476008305    1.35914221064419    1.90746532143855
H          -2.90309592473863    0.71651976198760    2.97181376395231
O          -1.64398150849693   -1.40094474802330    0.97755542916771
H          -0.76047254659542   -1.22420205577438    1.37958755681467
H          -2.21108495786207   -0.67195683242942    1.30532866476526
H          -1.43290566317999   -1.15810419485712   -0.48422236163067
N           0.13219942733395    1.65539149811126   -0.86317129331369
H          -0.23459878899550    1.98280551594887    0.70416985751568
H          -0.55035154487656    1.00831550969201   -1.24440535781776
H           0.27469766314710    2.37715264716757   -1.55885573900171
H           1.00393915563528    1.13959669758735   -0.79471287323726
