    26
        -50.47250317  Gyration_radius:  2.48722445647 Dipole_moment: 2.881
 S          -0.89843304967525    1.97607544383638    0.65667879136757
O           0.33182768658391    1.67066727085236   -0.04816108393318
O          -0.95176062045416    1.33355520874867    1.96419195946938
O          -2.09214869240144    1.71789585284556   -0.12568319030483
O          -0.87620029288985    3.53729892760041    0.92464214135863
H          -1.75980109335901    3.68016318180437    1.24600025484016
H          -2.16028908761082    0.22128848311491   -0.66855052386899
O          -2.15558342373346   -0.69513016986316   -1.05115764846243
H          -3.07369786108579   -0.91882594611867   -1.21052620623249
O           1.74613452413139   -1.52590806443837   -1.48752401220753
H           2.24643230243560   -1.90377899606883   -2.21100972379149
O           2.52036727287185    0.19599069364314    0.52023119318336
H           2.45657488753143   -0.43980784044812   -0.21587296679155
H           1.92180217693079    0.92463112340308    0.27203146723271
O          -0.32379186560290   -2.33778079857021    0.13824587880445
H           0.43232970758940   -2.24437865939255   -0.46895253137570
H          -1.04825869465422   -1.82966570270996   -0.27341017192594
O           0.10242456746477    0.30857965267637   -2.33489577772679
H           1.15749284861534   -0.82177018583181   -1.88769799096107
H          -0.77109016305992   -0.08414503667423   -2.19130214660875
H           0.20259540974914    0.95300830249130   -1.60560893324672
N           0.60180111908114   -0.75867533387858    2.04134411692523
H           0.76914017706400   -1.14120275793822    2.96466001142768
H          -0.04812981142110    0.07880154056408    2.08795166192885
H           1.49780031463542   -0.41929837411639    1.57691996564689
H           0.17246165127409   -1.47758782554573    1.38745545524488
