    26
        -50.47250317  Gyration_radius:  2.48728897984 Dipole_moment: 2.882
 S          -1.97198448605821    0.31220109119319   -1.07596971636146
O          -1.54543416581052   -0.84348254109634   -1.85553417453499
O          -0.87377228856381    1.22063531017209   -0.80705307546725
O          -2.70655328791940   -0.07464045985679    0.11331763026070
O          -2.99357083647260    1.11331736059640   -1.98392535415138
H          -3.73621417183966    0.51929357642272   -1.99176959351528
H          -1.77016111455603   -0.70679033006449    1.23691633010716
O           2.27755312425242    0.90606358702487    1.25834432670808
H           2.88226119907812    1.36935443344443    1.83816804330811
O          -1.16371665479816   -1.03956224570997    1.94946709646970
H          -1.69972503733357   -1.60240698288330    2.51006096901515
O           1.32793600244212   -1.66864313499140    1.02009997694867
H           1.81053048566389   -0.84315915181914    1.20654113181767
H           0.43876323361612   -1.53814817918362    1.40072807544252
O           1.75377047792862    1.24529266696344   -1.42606123523807
H           2.11199281838628    1.24241532218130   -0.51952169038601
H           0.81483758304301    1.48675541980007   -1.32172608344282
O          -0.19387556258076    1.56334265556849    1.75378542584797
H          -0.57569998598621    0.75332357972387    2.12249338232022
H           1.35834635403279    1.22451153207867    1.49511271702556
H          -0.53115585307364    1.59574516169630    0.83598970883819
N           1.01047214721206   -1.27114759127705   -1.57094678367931
H          -0.03135566493339   -1.15958861627085   -1.73869394852861
H           1.41620067521660   -1.92891596810289   -2.22635919966485
H           1.43569948703546   -0.29904685469079   -1.65972989845293
H           1.15485553200851   -1.57671964091431   -0.56373405068621
