    26
        -50.44592095  Gyration_radius:  2.58176245112 Dipole_moment: 6.942
 S          -2.27067354737587    0.92583243354014    0.95395613789855
O          -3.49815211012829    1.62683675513047    0.99124205843481
O          -1.14689319399161    1.54129083616164    1.62634883303240
O          -1.81899415058302    0.63921106044731   -0.51545139798857
O          -2.47976695866948   -0.50049562984176    1.49599319108680
H          -1.63295430758000   -1.04169158139338    1.40818736027671
H          -1.17889724185734    1.39005427567889   -0.75100045235785
O           2.20927432829365    1.22204182667474   -0.32734543360627
H           2.95808166226126    1.76281861900815   -0.07188051908142
O          -0.38580324368178   -1.95618575402250    1.16414145397694
H          -0.60064314245202   -2.84650732772642    1.44698951586320
O          -0.13887745303594    2.53202463743996   -0.67637346438836
H          -0.32358633920447    2.68288276598912    0.26204963829084
H           0.74528241104825    2.10732913579697   -0.70926895782092
O           2.19205937346667   -0.86244274454806   -2.13408372222181
H           3.05043784968101   -1.27526390474122   -2.03019799366519
H           2.19886187170574   -0.06553583641924   -1.57510575914229
O           1.16877571364251    0.22315988772168    1.83863375737518
H           1.86880343151257    0.79871078819041    0.51344657462829
H           0.36653975189566    0.77556434159240    1.92209363802747
H           0.83224730171396   -0.67404246399646    1.69883621439344
N          -0.42405968670780   -1.83474962689869   -1.40372750008085
H           0.49140937585877   -1.56524207789309   -1.76543768913664
H          -0.77243383228093   -2.60126642703291   -1.96439530600485
H          -0.36387412358963   -1.96258400985189    0.12627996534683
H          -1.04616372990220   -1.04174995899860   -1.52393013311247
