    26
        -50.46851048  Gyration_radius:  2.45278905214 Dipole_moment: 4.994
 S           0.98914357032681    1.62612567830242    0.82102788589071
O          -0.14846498037278    2.05922151982882    0.04106361000896
O           1.99553434725716    0.94450267507910    0.01641102752246
O           0.63107776550848    0.84176684070932    1.99408865257644
O           1.67782861369020    2.94172795015024    1.36806749634365
H           2.41198943592055    2.58908633213042    1.85934254647900
H           0.52698413592934   -0.70591088191158    1.59062835356809
O           0.35725854595591   -1.66075794324992    1.38305978571150
H           0.44797792345430   -2.12942601536844    2.21441460312681
O          -1.30200588423293    0.65494099208933   -1.95300120636018
H          -1.04327322084387    1.38507129460230   -1.36272797587250
O           0.45827665182578   -2.75208358933989   -1.10251273179283
H           0.57516456171778   -2.48946758583686   -0.17059001747016
H          -0.49181798158838   -2.83151472288478   -1.22890005902359
O          -2.10821284323049    1.17063577931943    1.64716511199320
H          -1.57203148093076    1.68697864147472    1.02053677760720
H          -1.47680431076949    0.93523426552357    2.33504763250716
O          -2.01189653921331   -1.00109157032697    0.03393247280553
H          -1.71724591800750   -0.00363332226035   -1.34873919721191
H          -1.23228304585134   -1.33890578825255    0.50085117821394
H          -2.32390845723534   -0.26961804832108    0.60528484836266
N           1.09212965344664   -0.33701714444891   -2.07899008243800
H           0.10251564360797    0.07986305304326   -2.18716210024445
H           1.64842017927398   -0.22917550812087   -2.91907845215722
H           1.53427097372320    0.17869659594805   -1.26517268855189
H           0.97937266063398   -1.34524949786714   -1.81404746158823
