    26
        -50.44592087  Gyration_radius:  2.58184566041 Dipole_moment: 6.938
 S          -1.06034614538426   -1.78850264457442    1.61277050461729
O           0.25108050312304   -2.21270430449252    1.17211005724301
O          -1.93837356410018   -2.79944745064655    2.06712133065690
O          -1.68960065448910   -0.96753364772767    0.43990227954786
O          -0.91599703161701   -0.70912321603340    2.70171416005631
H          -0.35220693753795    0.05825199866947    2.36880099239239
H          -1.33274788558061   -1.39419944381683   -0.40830363693981
O           1.50003903357941   -0.36781650838336   -2.02520922063290
H           2.25277847677991   -0.71414776645294   -2.50670930831362
O           0.39862974550395    1.32909552037811    1.84612367180924
H           0.38893571734158    1.99423274973970    2.53625715448945
O          -0.45673748208317   -2.14962920553041   -1.43490084364455
H           0.17500773884926   -1.49347915925098   -1.80025630281033
H           0.02249545350597   -2.61388045311493   -0.73325524641194
O           0.23239206407428    2.05050820777826   -2.41738433684109
H           0.63050900040726    1.16402154538811   -2.36073199089182
H           0.93601799301923    2.64945068540269   -2.67072848574902
O           2.09270703818749   -0.39244058443068    0.50868356593263
H           1.56078765208303   -1.15587421072170    0.80863507932338
H           1.77673775064019   -0.32633439485213   -1.06412736272634
H           1.71487130550780    0.36578852109704    0.97781835648074
N          -1.30296266200774    1.95345080744193    0.02262881708297
H          -0.83699044784556    2.08245743841350   -0.87627642412384
H          -1.82333177826466    1.08322696123113   -0.02461111401179
H          -0.26317577172107    1.64298854882878    1.11056778625744
H          -1.96051910195648    2.71164001567113    0.14936051720330
