    26
        -50.44592091  Gyration_radius:  2.58180757967 Dipole_moment: 6.940
 S          -1.14047534801944   -1.58122282494419    1.76718084359086
O           0.29075542791845   -1.79310356860073    1.74123643514795
O          -1.93217031592727   -2.63580532755877    2.27752365675104
O          -1.56844116738393   -1.19498510581569    0.31348564685906
O          -1.45757543865729   -0.28529357067363    2.53640848927478
H          -0.95716974184722    0.49531204713446    2.13910415630597
H          -0.94040719365960   -1.70724425887855   -0.29645603432908
O           2.01185416398160   -0.46207018758508   -1.49182936565111
H           2.90887499300251   -0.73155569249344   -1.69468477946675
O          -0.31008212269483    1.75429679489838    1.46969893403415
H          -0.60409242599146    2.53544877473746    1.94106303842726
O           0.51637771927817    1.47211480513633   -2.76899896475318
H           1.15566869198994    2.13995586123295   -3.02020680633773
H           1.02378445899871    0.72965858423554   -2.39635001493493
O           0.28096630116695   -2.45695444434783   -0.87780303470826
H           0.63043552499436   -2.64010575195002    0.00641888165102
H           0.87187444021320   -1.77402419900719   -1.26190363634192
O           1.92540989871461    0.19670519681357    1.02430264409930
H           1.32274931664289    0.93735587945743    1.18550623496601
H           1.46331891795366   -0.58042338686749    1.39614522807399
H           2.02040487228317   -0.15242421126580   -0.53995110481094
N          -1.56045359454582    1.57655488174752   -0.76987038716372
H          -0.90525538160098    1.60491025507722   -1.55193777364618
H          -1.90456003979818    0.62466775313446   -0.69345665570056
H          -0.80066363154988    1.74708276343683    0.55499081386665
H          -2.34112833545628    2.18114893295337   -0.98961645520797
