    26
        -50.46495535  Gyration_radius:  2.51176124012 Dipole_moment: 4.791
 S          -1.63891701391832   -0.13360575886723    1.46168906229421
O          -2.66643723052247    0.20375330257421    0.50588195135307
O          -0.62750148007841    0.88834492199998    1.64214424931157
O          -1.04072188335300   -1.44348278156516    1.18439599891543
O          -2.36358367230888   -0.27884316451393    2.86554427116214
H          -3.18077161888094   -0.70757362804527    2.63358247488620
H          -0.56628117615337   -1.35565393149949   -0.40912365719456
O           2.61146987916391    1.79119090602121   -0.91954189670058
H           2.86396116930211    2.22079295160680   -1.73746242418440
O          -0.20934203795967   -1.11531521134904   -1.29231646356848
H          -1.00420448886787   -0.91703420644820   -1.83094611642884
O          -2.46873685776941   -0.00271639530825   -2.14350615524243
H          -2.68927159656162    0.04608670048752   -1.18924793565638
H          -2.36946323765733    0.90954902348647   -2.42439424506671
O           1.32891649443493   -0.83719075494984    2.06562242995272
H           0.51009155081015   -1.34118924052152    1.86234993214173
H           0.96412806812297    0.05561510309550    2.19183657052668
O          -0.00099649789843    1.64666589397341   -0.82249624837349
H          -0.12658919106919    0.75195497217635   -1.18091349402928
H          -0.28370584565009    1.57355742447967    0.11015991478181
H           1.62553861692057    1.90646070022800   -0.83711436161923
N           2.29134495891385   -0.78500195877201   -0.36203669121501
H           3.02725591799496   -1.45543953493503   -0.55357072409275
H           1.42924824539577   -1.00640381535865   -0.90100979889490
H           2.00069407608857   -0.81311220830391    0.67960166497232
H           2.58387485149021    0.19859070028787   -0.59912832802316
