    26
        -50.46318596  Gyration_radius:  2.50864657054 Dipole_moment: 7.457
 S          -1.52713701423126   -1.41855881554158    0.07929969379058
O          -1.13992574580309   -1.37045348960118   -1.33999249360693
O          -1.81858181119468   -0.11651505671135    0.60945223980262
O          -0.54492923706884   -2.17620179090930    0.83858916335245
O          -2.86668450054968   -2.25631666375429    0.12786461461701
H          -2.56334611064073   -3.13162505392636   -0.08870770917370
H           0.90988266765761   -1.62457194432702    1.03734410827024
O           1.85866906642727   -1.30733624420749    1.04869357863806
H           2.36492939641326   -2.03762434446660    1.40915436580884
O           0.41385908889411    2.14002339570002   -1.27993310360319
H          -0.47285838790224    1.97850551722281   -1.67562518833374
O           1.79117050121104    0.96769645045513    2.60341572418613
H           2.61071392169203    1.43010582708660    2.42152881924967
H           1.81932836195837    0.12855959332807    2.11000162170047
O          -1.99866885046882    1.14186276582997   -1.87849289906760
H          -1.77746987404585    0.19473854308800   -1.84504688587784
H          -2.42989077726769    1.30983957862242   -1.03430773362342
O          -0.31585220172511    2.07370750248050    1.22731055576394
H           0.21317744626886    2.26750292043163   -0.31220287616707
H          -0.94569284069886    1.33855967530815    1.14089806975192
H           0.36270487670341    1.76664792220689    1.85431672756557
N           1.24198760445993   -0.27244998215455   -1.42029322691635
H           0.97713116109357    0.80951243811711   -1.36426295826128
H           1.71043447205291   -0.58459502819117   -0.55554010228348
H           0.31768858694342   -0.78253076172232   -1.47594054016437
H           1.80936018982323   -0.46848297437511   -2.23752356541909
