    26
        -50.46318599  Gyration_radius:  2.50866761212 Dipole_moment: 7.456
 S          -0.28457386036930    0.87722088932702   -1.87078783220886
O           0.81537892018329   -0.03597179755613   -1.73880807855834
O          -0.18209798448786    2.01397457022988   -0.94136620621200
O          -1.59855440030251    0.26285339844018   -1.76412178727045
O          -0.20464908310241    1.50269697174232   -3.32026571679910
H          -1.03309775480038    1.96602741528253   -3.38425269180612
H          -2.02137846331528   -0.49721873261480   -0.45882253509634
O           1.73157461052198    0.17481483780357    1.83320522388247
H           2.18402631045243    0.81032621587190    1.23293358084609
O          -2.30755062656942   -0.87136553302212    0.42382281961940
H          -3.25022583604007   -1.02550981974711    0.33916456321300
O          -0.76073215014920   -3.13165294189077    0.73314828459839
H          -1.34904029901131   -2.36938731436859    0.58739477560915
H          -0.81961606381392   -3.36054175322118    1.66197849482635
O           2.42032884966447    1.70419680263874   -0.25526893721774
H           1.53137886219663    1.99686066205728   -0.52204436548756
H           2.62969330597119    0.99991184304428   -0.87731561970052
O           1.59214273961162   -1.82919442551344    0.16356689643019
H           1.37847012340681   -1.30273343091361   -0.62496149242269
H           1.75426241594677   -0.67984961591381    1.32128882139336
H           0.83718551074272   -2.43056342887904    0.29099531828584
N          -0.63826109496063    1.05086957460523    1.45648271592463
H          -1.32563259827954    0.29437546583400    1.31543936784650
H          -0.51111160304305    1.53462247976656    0.52510792118491
H          -0.95355512973245    1.70786357658518    2.16157485089945
H           0.36563530926935    0.63737407041919    1.71191163821210
