    26
        -50.45097877  Gyration_radius:  2.60371598079 Dipole_moment: 5.477
 S          -2.66954866421528    0.28625533773285    0.37433503017770
O          -2.69621990384124    0.37950113134818   -1.07936615309855
O          -3.90876526389938    0.50589172425820    1.04545596589477
O          -1.73057287771574    1.54506626551428    0.84291379713629
O          -1.90601061204573   -0.88027452287510    0.80335129350992
H          -0.56861648074792   -0.97933811563688    1.76322355000804
H          -2.41801788870099    2.10293862773251    1.19080037094203
O           0.79797890906129    1.90450943601821   -0.30033384174027
H          -0.04226983393480    2.04701740047961    0.15664327142674
O           0.27244441779372   -1.14544132572827    2.24890907397732
H           0.06304154819652   -1.06253244008271    3.17958347395996
O          -0.07107581877259   -2.42485079132281   -0.37431652543415
H           0.53103227327024   -2.48485480176077    0.37344885123459
H          -0.91234222601381   -2.11490492769580    0.01360178571702
O           2.70981911856261    0.22429283351534   -1.73668891113247
H           3.62318903790345    0.32037314667378   -2.00923861463490
H           2.39844501625784    1.10252382287706   -1.48977419940148
O           2.28480230087047    0.27904435019213    1.15466297192972
H           1.61135847545609   -0.25704768514899    1.62018626842679
H           2.58173842685044   -0.24315245396805    0.40082605967998
H           1.37766585727446    1.44478570172349    0.35721617160006
N          -0.25300349003715   -0.11384111964529   -1.72642936576243
H          -0.00492163888747   -1.03582867320814   -1.29149547365636
H          -1.29802588398687    0.05984463625710   -1.54983486316979
H           0.26703681951921    0.66783798020562   -1.24974212557522
H          -0.03916158824552   -0.12781556744454   -2.71793786202749
