    26
        -50.46206066  Gyration_radius:  2.51576507726 Dipole_moment: 6.939
 S           2.03603435038516    0.94232519013263    0.68271915587800
O           1.89603206452507    0.49613850542906   -0.70715180096635
O           2.77510563834615    0.04749398721042    1.51110197744410
O           0.71852664948399    1.29455642959489    1.21977677374398
O           2.82420161403813    2.32019342465952    0.61174315886349
H           2.17636997767575    2.92288221509320    0.25855013653608
H           0.62045542912848   -0.25784277398238    1.93827143881861
O          -1.42778113536238   -2.19370436344590   -1.57905244134372
H          -1.81840404377736   -2.98262220621582   -1.20111711400094
O           0.39487513175887   -1.16626906951619    2.22158924510238
H           1.18983605952586   -1.47108558052298    2.66667074600193
O          -0.00609707939078    1.60804644979086   -2.00850864968892
H           0.73884530601562    1.21749539708374   -1.46852891997505
H           0.20270423308644    1.37959675791392   -2.91678531712087
O          -1.81312254571372    0.59732108700424    1.62365871950419
H          -1.57485386560239   -0.22350227570557    2.07023183865698
H          -0.96329050193078    1.07673394094637    1.55540347683383
O           0.85258134942292   -1.94987497326103   -0.36121418836593
H          -0.50142959727419   -2.14524613214033   -1.20295948373740
H           1.35151260116289   -1.14451110305223   -0.59278797611052
H           0.66111807143209   -1.85780336997231    0.59084580125956
N          -2.08792185172891    0.30022519447638   -0.98897349068722
H          -2.97813523142142    0.62812090937220   -1.34718560470523
H          -1.92490237472796   -0.71269993426382   -1.24294663927880
H          -1.29373333315313    0.86693856953523   -1.40181909565799
H          -2.04852690589694    0.40709372385903    0.06846826301328
