    26
        -50.46982046  Gyration_radius:  2.50063180972 Dipole_moment: 2.027
 S           1.89644188714729    0.81747407335562   -0.48504038064627
O           2.21240189101745    0.80685200819738    0.92249950021451
O           0.67254750605209    1.57506341479733   -0.76723305956969
O           1.85109741901696   -0.49419824162810   -1.10237110808480
O           3.07477210748003    1.60502086982588   -1.19147898702827
H           3.40563241051017    2.11399591208623   -0.45974228519340
H           0.87567417801878   -1.57169323402727   -0.43296091986465
O          -1.61161401616216    0.45754829802905    2.79034214406812
H          -2.19644009873406   -0.19603343339955    3.17666737415390
O           0.24003757496544   -2.20249022940358   -0.00498040382012
H           0.61925157339065   -3.07579675660215   -0.11702350599568
O          -0.16465396142763    0.15085878519890   -2.87151770417345
H           0.11345985083315    0.81757707317172   -2.21497697187985
H           0.59383224303232   -0.43868948335169   -2.92674342907708
O          -1.91754987975494   -1.06183031937894   -1.25104811474570
H          -1.41009317846781   -0.68996549337277   -2.00957808407494
H          -1.28450924705671   -1.64152520414890   -0.79073495938336
O           0.62864082281459   -0.79928061894834    2.35607479387555
H           1.27999543549145   -0.18181129982516    1.96779274395180
H          -0.71310133373351    0.02476592378281    2.74216708606988
H           0.42817543921519   -1.42996313853954    1.64514827609379
N          -1.73660598892426    1.09738534549731    0.21389264671395
H          -1.95340191208438    0.20796370500708   -0.34808451415098
H          -2.38697973320687    1.84017833357839   -0.01787324368761
H          -1.75341060805237    0.89173501676103    1.24885007130285
H          -0.76360036136911    1.37685871333314   -0.07204698504626
