    26
        -50.46116090  Gyration_radius:  2.45258247497 Dipole_moment: 8.892
 S           0.14383544338169    1.41406394807162   -1.58232189236250
O           0.53698064356617    1.01180974928743   -2.89624962950356
O           1.29210914819913    1.48802566855289   -0.64376372134727
O          -0.87739156966239    0.54041054330940   -0.99528245029145
O          -0.47098147228087    2.84945044400831   -1.64390345836775
H          -0.69207005785869    3.04296250022035   -0.71826473821920
H          -0.76735884718422   -0.80194028635171   -2.00704496096089
O          -0.34962266552179   -1.55646065765355   -2.47357013957794
H           0.23459221616999   -1.10775971493313   -3.09576453361584
O          -0.55256703534664    0.26512351595649    2.61774750068175
H          -0.89157526023772    0.15525311678425    3.50655636411334
O           0.45897004749459   -2.64224599413881   -0.24951714526860
H           0.16720435393384   -2.27842466729733   -1.13472062690539
H           0.82303639731048   -3.51030359853651   -0.42718285211357
O          -0.32440035957626    2.73670134916351    1.06696552869237
H          -0.62751607477090    2.01713341943206    1.63573827938182
H           0.46624456790243    2.39530029455041    0.61761855804921
O          -1.80680544261322   -1.14571845876254    0.83190338881970
H          -1.27231544481486   -1.90357345741029    0.56479908278182
H          -1.15231723506049   -0.25582160530698    2.01163009812636
H          -1.66529883500435   -0.48409286448809    0.12665391462768
N           1.48280430658051   -0.46438168566317    0.99361890454186
H           2.43229172281799   -0.55634993781242    1.33818467209302
H           1.15436744407143   -1.34623270398145    0.54085372506961
H           0.82645716550387   -0.20282894453005    1.75929776433316
H           1.43132685296856    0.33990002750970    0.25601834724608
