    26
        -50.46206078  Gyration_radius:  2.51563997064 Dipole_moment: 6.937
 S          -2.00458681002953    0.98748930000877    0.71025106538649
O          -2.09684885097237    1.01606585040062    2.13288782244584
O          -2.04993316499950   -0.35967369082987    0.13270641663916
O          -0.84618861137476    1.71061758070430    0.17778329464735
O          -3.26492369898651    1.74998251693442    0.11469665300613
H          -3.02138624895220    1.89463850204538   -0.79495485140657
H           0.03424445815031    1.29807405944837    1.58861933743269
O           0.66434913911400    0.96092858701979    2.25623696951202
H           0.19289602669821    1.06152533699248    3.08724522070619
O           1.74039943013458   -2.50960601693725   -0.11439892220616
H           2.49164320158371   -2.68878560440170    0.45249047843138
O          -1.12868101517212   -0.54346167404525   -2.24766693526224
H          -1.44658564022199   -1.40466632186722   -2.52699161785178
H          -1.49948273336500   -0.41956541874550   -1.32778295648495
O           1.76836924929849    1.75229409669541   -0.29237503374564
H           1.99355929879032    1.56571704211136    0.62658369741160
H           0.81005472090856    1.94521846841335   -0.25927247660288
O          -0.07115240442178   -1.56151462436647    1.48647633325857
H           0.99526341580502   -2.24812018271789    0.50060129889738
H           0.29728062283297   -0.75400995886831    1.89107936981252
H          -0.88898023401303   -1.26675031699926    1.04447458488658
N           1.48244753535677   -0.43942933159192   -1.74287792834060
H           0.45346656101849   -0.45465578463631   -1.99455682300858
H           2.05076772136628   -0.45196700516060   -2.58263164023489
H           1.66693899345805    0.44399198401929   -1.18010293699686
H           1.67706904800186   -1.28433740364410   -1.13852041032664
