    26
        -50.47014106  Gyration_radius:  2.40825963675 Dipole_moment: 4.178
 S          -1.15896076196372    1.34726026197807    0.56538477876683
O          -1.77139247902912    0.01823067557874    0.74465901512536
O          -1.85118959560838    2.17253555709127   -0.37359893432310
O           0.25371791341115    1.14799811287147    0.15568535024592
O          -1.12867881690067    2.03267548849175    1.95558798089218
H          -1.00184511532951    1.29812008649667    2.61302390281174
H          -0.16216006315955    1.29725158596349   -1.53848692546135
O           1.42715731575636   -2.07507537178566   -0.60247043287266
H           1.93611514470866   -1.35811932290494   -1.03848403845164
O          -0.43057169172948    1.07865801840520   -2.45236239482814
H          -1.19302525516200    1.64641155718700   -2.59776411291489
O          -0.85202646283155   -0.21581943642117    3.23619606301720
H           0.03526218812582   -0.51016278618929    2.96861871844183
H          -1.43403019669923   -0.49135345864834    2.51000074638719
O           2.31004632391738    0.30231826613383   -1.49477163792792
H           1.73367306010159    0.74568619161398   -0.85218666431236
H           1.98760830462023    0.57893316346527   -2.35611853491633
O           1.40106961892256   -0.59613335998821    1.71142459868749
H           1.44089156681754   -1.83098702401937    0.34076498363005
H           2.26477413239937   -0.24454185838167    1.93559992517378
H           0.96482229799105    0.09013424861460    1.14318170829241
N          -0.96954051914371   -1.31130095273952   -1.33398575182865
H          -0.80900657030430   -0.52081946217697   -1.99900102147711
H          -0.01637429163809   -1.73182221784490   -1.06520476536597
H          -1.38057671641780   -0.85976509356402   -0.45770991066821
H          -1.59575932077951   -2.01031285916905   -1.71798263609056
