    26
        -50.46654159  Gyration_radius:  2.46922418836 Dipole_moment: 5.998
 S          -0.00358790798994    0.24757697882903   -1.11302862647304
O           0.24195536642503    0.47886960926856   -2.61952920617436
O          -0.24486604693200    1.58723197828557   -0.55752181230204
O          -1.14825693952348   -0.62022579103007   -0.92857372506944
O           1.21185932967170   -0.32296835272201   -0.52774915875481
O           1.23700883430891   -0.41093408084121    2.11608823178676
H           1.44961631707247   -0.52641859071678    1.16465215026893
H           1.03094724784268    1.03780486050624    2.08187334002355
O           0.51057970437417   -2.81477720832064   -1.09520166208278
H           0.91519456356010   -1.98157865887842   -0.78030852406665
H          -0.43012540969296   -2.69703961467406   -0.92417785670014
O          -2.08569519819697    1.91644482391963    1.34681440873868
H          -2.99462891376895    2.02202170375292    1.06269789939997
H          -1.55585802995583    1.80757896381745    0.52826693111469
O           0.75023348110292   -1.88809570325802   -3.54314968122899
H           1.67921014775327   -1.94434278161441   -3.77689911071997
H           0.64256403818278   -2.40686607506991   -2.70415917396273
H           0.38370001366159   -0.41667621004723   -3.03513008134465
O          -1.34205157995464   -0.74505780862843    1.72137877104217
H          -1.75906543145578    0.11598199477243    1.87576893193750
H          -1.34209603617491   -0.84055615248628    0.74726776552354
H           0.29925179578822   -0.72323711801621    2.17456512369858
N           0.73348023173270    2.06914165494974    1.79776744946491
H           1.46814419938513    2.75203997086652    1.94457008535666
H          -0.12699552714563    2.33285478948929    2.27800369400332
H           0.47948174993554    1.97122681781313    0.76571386652817
