    26
        -50.46368395  Gyration_radius:  2.44669225097 Dipole_moment: 4.361
 S          -1.26077322862203    0.57462198142680   -1.43170940634543
O          -1.72439953609711    1.93277604622274   -1.30278119241092
O          -1.79140278628041   -0.17697994254655   -2.52724156082529
O          -1.82084164613763   -0.17396065912716   -0.08877392284094
O           0.18851609166189    0.44456801706185   -1.27184859009335
H           0.01467232411025   -1.17202993989245   -1.69443815209506
H          -2.75362321865088   -0.00107434385842   -0.16376269607262
O          -0.24885260751953   -0.81867332686846    2.11871973808057
H          -1.03773471905551   -0.76083298698496    1.56229699817953
O          -0.05304180077456   -2.14677626508390   -1.71556460168607
H          -0.87641451433873   -2.30379180847339   -2.18411976855120
O           2.71678274311189   -0.05559238929962   -0.25882563069603
H           2.55764850007911    0.60173105407137    0.43145249361715
H           2.06528234310182    0.15775284737079   -0.94460347572728
O          -1.33537901445918    3.12034182757268    1.02185559930396
H          -1.28436811869030    4.06225338733131    0.85267260822699
H          -1.54303401878197    2.70570356917255    0.15395088025704
O           0.74618828992966    1.42080585914688    1.14972853855710
H           0.10431827213086    2.13179061189893    1.34016150446219
H           0.18432073850601    0.06236638273466    1.98111200111049
H           0.50685316821150    1.13462641089168    0.24422646330683
N           1.34186828282583   -2.18007900659984    0.55618046516323
H           0.76608520545890   -2.39546534587779   -0.28718195286969
H           1.81019374756388   -3.00625123295315    0.91009844503915
H           2.03045533825272   -1.43027832664410    0.26085431858520
H           0.69668015441397   -1.72755241070273    1.28754089629041
