    26
        -50.46764450  Gyration_radius:  2.5266229019 Dipole_moment: 3.908
 S          -1.74240630781389   -1.20630175318844    0.94056941304612
O          -1.60346310672617   -1.66593215424909   -0.41707528435579
O          -1.60204673766286    0.24777542081308    1.03950437872440
O          -0.87876329549534   -1.88380207090420    1.89434125742667
O          -3.21953284299324   -1.53884921504672    1.40537207859921
H          -3.10515531524327   -1.52754011972429    2.34923946621424
H           0.65774072456254   -1.72802302809955    1.54918375105356
O           1.98788823095046    2.35059532999797   -0.47328685719413
H           2.92953970986343    2.28483373604141   -0.31030232191103
O           1.60585674932912   -1.56729469079970    1.28767701067942
H           2.12183458465076   -2.22085157240176    1.76241967116777
O           0.84639027331868   -1.60712405864543   -1.33324638677355
H          -0.09565957664690   -1.77278856280518   -1.09766360613921
H           1.31210811329467   -1.62623984196558   -0.47743629715588
O          -1.84319869370605    1.56195845430314   -1.18436022596753
H          -1.86934070257908    2.46125173977843   -0.84976834245195
H          -1.85323598517953    0.98423720603408   -0.38022361947783
O           0.89046538377236    1.09567176556435    1.54341032524220
H           1.33010530255286    0.23173150908687    1.56817762847720
H           1.54567831372136    1.97893361274572    0.33900172727184
H          -0.05789121487958    0.88382776811511    1.43461884532076
N           0.53729786235134    0.85917547359448   -2.14074388714054
H           0.70371285988543   -0.16491939016121   -1.85681715296797
H           1.19441478762855    1.47512962431044   -1.60149522950148
H           0.65394771103564    0.97551783994830   -3.14088166254756
H          -0.44628681761950    1.11902696724640   -1.85021466967687
