    26
        -50.46507289  Gyration_radius:  2.55343311801 Dipole_moment: 4.274
 S          -0.33876296726557    0.48773873149335   -0.80658551560609
O           0.81970100100148    0.71968685989765   -1.80986026705757
O          -0.39984247192457    1.62379307685002    0.10233702997146
O          -1.56733408072100    0.31795165567875   -1.57334669559854
O          -0.03369988582328   -0.74914642813883   -0.07430485284919
O           3.51031116168794    1.01105249301500    0.91231966732241
H           4.46651364121210    1.00836267517910    0.84882745756178
O          -1.61959170644021   -2.85379019124408    0.07653815483812
H          -1.44063234500342   -3.40552711330035   -0.68637356889533
H          -0.93179409718494   -2.14781570907481    0.06472067142860
O           1.97324543215802    2.61424196974904   -0.58769244265385
H           2.60244280729118    2.14744491658262    0.00860094670573
H           1.34952099006899    1.50898690545207   -1.44318370983582
H           1.14261829266100    2.67750307237418   -0.08977611520949
O           2.56762955812029   -1.09718072477304   -0.44826510069962
H           1.61521795610244   -1.06163986136419   -0.22045255679272
H           2.60626251770552   -0.82323517124775   -1.36873269499630
H           3.20251024935575    0.16610169365608    0.51091772287410
O          -1.70072615116155    0.45658703599471    2.04022613069141
H          -1.21695698131603    1.03089035451723    1.39852887857140
H          -2.75132940622814   -0.23295088829420    1.03603407578373
H          -1.05335309148364   -0.19827140941171    2.31529517908803
N          -3.15938595923882   -0.69287142951466    0.17021458015553
H          -2.63360193584355   -0.22885062843606   -0.64633673647880
H          -4.16560787422106   -0.58983802019837    0.10402528653879
H          -2.84335465353099   -1.68922386541399    0.16632447511735
