    26
        -50.46368403  Gyration_radius:  2.44674351107 Dipole_moment: 4.358
 S           0.20213321523968    0.26884474176402    1.96373101887245
O           1.46201604753124    0.84766355057380    2.35609756861773
O          -0.70053556155813   -0.06617837809262    3.02182030081855
O           0.60873509447951   -1.16102448275170    1.27992519927379
O          -0.43066817733156    0.97256852761373    0.84693458534204
H          -1.76159302158881   -0.02802953976819    1.06790610724858
H           1.09777234292572   -1.56556231461594    1.98898688689918
O          -2.45626743614360   -0.71285288416994    1.00703061708058
H          -2.46575341557213   -1.10056173468247    1.88553608286800
O           0.63233158597418   -1.63574852847215   -1.46482766779245
H           0.71814274701759   -1.81946778033679   -0.51921312065550
O          -1.34509525173433    1.69347614852930   -1.66584624987998
H          -0.43010091077849    1.73402566783033   -1.97412339244906
H          -1.27334841909417    1.75283800571732   -0.70065055921080
O           3.39556425497845    0.84873096087414    0.55982644983038
H           3.97207196511413    1.58607070367856    0.76575922318089
H           2.72137398539113    0.83072599133394    1.27640043782945
O           1.32758042765471    0.88783811916411   -1.16050798115137
H           1.01736031846109   -0.72616386454355   -1.54960162803871
H           0.74089043143941    0.95420855460239   -0.37916577395394
H           2.22387797828124    0.89953936614089   -0.77287666353823
N          -1.87459629834721   -0.91083991660584   -1.58709404002929
H          -1.77909872894503    0.13254074831995   -1.74753563610056
H          -0.87881120941885   -1.31494273659381   -1.62052335526722
H          -2.23219429830732   -1.02440788747212   -0.61321991048043
H          -2.49178767558990   -1.34329104795126   -2.26476851938809
