    26
        -50.45679352  Gyration_radius:  2.68070564859 Dipole_moment: 3.238
 S           0.92318534383907   -1.78393128520397    1.62891571271231
O          -0.30188985282647   -1.02240661185103    1.93107310998798
O           2.07484314390808   -0.93710858162952    1.54434623804234
O           0.72248908298122   -2.62741410661748    0.45388945568003
O           1.13124402710250   -2.77234742304315    2.85362995220312
H           0.38340268737563   -3.36452958508608    2.83652970093907
H           1.20611714801238   -1.52599375468435   -0.66148630004031
O          -1.64524284344041    2.08055636057693   -1.05535387072993
H          -2.56593166826933    2.02297463469324   -0.79528555136961
O           1.48823135877169   -0.73898621412769   -1.18947295707283
H           2.44147131719114   -0.70718369342175   -1.07901699432456
O           0.55043209895008    3.74298212085717   -0.18844839086545
H          -0.23905849672490    3.45825037367791   -0.66701021206360
H           0.77696423961507    4.61222475618867   -0.52019184293636
O          -1.78845698247632   -1.77441698117240   -0.17516313496708
H          -1.16838973916306   -2.49633366275867   -0.33746307443149
H          -1.47017456302318   -1.40706551301931    0.67016508267504
O          -1.10810397626921   -0.17510422861323   -2.22943237578278
H          -0.16106621675657   -0.35850994596156   -2.23026976106115
H          -1.48479641382863   -0.78756218200087   -1.55811026636198
H          -1.48343808647364    1.29781827219621   -1.65532735868346
N           0.34270207419398    1.06792679611237    0.49670200580926
H           0.06017168743264    0.38192142579245    1.24440812657746
H          -0.49035944938699    1.48548652958724    0.02090085687669
H           0.91855600107255    1.82623099146038    0.85930805017218
H           0.88709806816833    0.50252150804973   -0.19783620095724
