    26
        -50.45332302  Gyration_radius:  2.39090135072 Dipole_moment: 10.205
 S          -1.77104646107676    0.04623960753440    1.25468585797157
O          -1.12545514094850    0.21958073270217   -0.06462471444693
O          -3.13139006688598    0.46697208637417    1.26017921639830
O          -0.92469708720182    0.98712521837533    2.23420120434012
O          -1.50561639277433   -1.29768032182737    1.74222612813851
H          -0.54586731193805   -1.97147720403965    0.77550235153537
H          -0.78668157578423    1.81255145340157    1.72953479626028
O           2.15951971275633    1.03723295501682   -0.11351161405236
H           3.10023537324608    1.18441134929108   -0.00650229441457
O           0.12068051723733   -2.44517755765675    0.17938141218246
H          -0.31838847402398   -3.25688864528789   -0.07949884854422
O          -1.40721423923260    0.14460574812348   -2.62464757828239
H          -1.60666133365373    1.03505984802867   -2.91952092740094
H          -1.58141713772099    0.14028668717877   -1.65344761685308
O          -0.23632569141338    2.63968923626260    0.25500357243661
H           0.71302787060589    2.49471869755855    0.16529979552110
H          -0.64068999238123    1.80939011589182   -0.07203402459327
O           1.36538729953663   -0.42359188991231    1.89710390087207
H           1.86586013834686    0.53081562589268    0.69678091554746
H           0.53033557409935   -0.02379183278488    2.19947153148058
H           1.13627892294395   -1.31614495784546    1.61612717094317
N           0.93801261019180   -0.76631597154402   -1.71782046382757
H           0.09267295267667   -0.37320758399008   -2.20740060886988
H           1.55984970866832   -1.24096716076579   -2.36377491525258
H           1.42986522155813    0.00262143303723   -1.20562718792191
H           0.56972499319962   -1.43605763901813   -0.97708702914956
