    26
        -50.45332294  Gyration_radius:  2.39090471184 Dipole_moment: 10.212
 S          -1.85462008357538   -0.59276416913246    0.96183809720667
O          -3.04210519231276   -0.05507387058066    1.53488592658223
O          -0.88048072958561    0.45313283223336    0.58147427131251
O          -2.21673017847228   -1.31494587158762   -0.41957482101112
O          -1.17272787342660   -1.62291387782606    1.72873303306906
H           0.31398878007841   -1.30911767792722    1.72502914828190
H          -2.33045199537608   -0.58539631675837   -1.05971186277458
O           1.01662488827515   -0.08300314536690   -2.17123683561685
H           1.55150712656309   -0.37669896282606   -2.90993041727308
O           1.31493415823281   -1.15986206058121    1.71642636852125
H           1.56590951051663   -1.13916326878580    2.64121071461300
O          -1.70461543310616    0.88282876770570   -1.84462837215877
H          -0.91619726250205    0.64409105453938   -2.34633462153304
H          -1.39145076357224    0.95311551777120   -0.91899876143225
O           0.14742695846280    2.74518615899074    1.15457048308944
H          -0.42334254787942    1.94033415186360    1.14569796151148
H          -0.33434300540703    3.40946234649674    0.65830833729004
O           0.31195236022843   -2.20391971736494   -0.82546261653611
H           0.70661998926352   -0.91287735433499   -1.70794484973259
H           0.76121272908555   -2.24417093146218    0.02587675647433
H          -0.63140568283363   -2.08209380311597   -0.61612182613724
N           1.86858394329212    0.94435529437836    0.18187958764649
H           2.86118782626261    1.15162202980964    0.21350306496506
H           1.28870757426896    1.76149103378852    0.50608877791710
H           1.56456628896449    0.66476985732716   -0.77989915254352
H           1.62524860456543    0.13161197277127    0.82432161826673
