    26
        -50.46929811  Gyration_radius:  2.49716728995 Dipole_moment: 5.053
 S          -1.02248756394740   -0.61352535664643    1.73678319337396
O          -1.58607949405371    0.67826223849028    1.44528217096366
O           0.44493763972454   -0.58955253812432    1.78049849932062
O          -1.48841806879441   -1.68558273627603    0.87547564942374
O          -1.48646640919993   -0.99784266241672    3.19979760494955
H          -1.26523040802334   -1.92212204660055    3.22855096412500
H          -1.58020043852577   -1.48850981947377   -0.69639646271808
O           1.38543827356564    2.17530992181817   -0.60363378980625
H           1.25724639390936    2.36480608813472    0.35384972647175
O          -1.63062769188576   -1.35065825535868   -1.68032843132175
H          -2.37001841942740   -1.88227625254115   -1.97912185718500
O           0.72476021786104    2.08056260678869    1.99209343181893
H           0.74412678414490    1.10911036125683    2.06142781223682
H          -0.21581682595822    2.28709016533026    1.99863058720753
O           0.88456992637369   -1.43376043482581   -2.57028342473558
H           0.88301925749295   -0.79395573460256   -3.28543895172396
H          -0.05085564909233   -1.51503698706154   -2.27997574197122
O          -1.10610857548234    1.34553934160241   -1.11153320285387
H          -1.37781538102522    1.22733575662907   -0.18195323948757
H           0.47440329570909    2.04709524805807   -0.94655520428760
H          -1.35527543578675    0.51858231597623   -1.54419685844565
N           1.96861974499730   -0.33202925101144   -0.36339851861560
H           1.61569034570301   -0.84397317377505   -1.20630153359743
H           2.93748933571663   -0.56386290508462   -0.17553994894717
H           1.84063854839711    0.73889213609124   -0.52206366515250
H           1.37446059761595   -0.55989803660553    0.47433119092086
