    26
        -50.46507293  Gyration_radius:  2.55353215778 Dipole_moment: 4.275
 S           0.92987261507364   -0.33754456867568    0.15516612733013
O           1.08217002111647   -0.81351687160605    1.62232279766065
O           2.21762056438473    0.19008147653766   -0.28009995815464
O           0.48502015900016   -1.46340757453013   -0.65418465203174
O          -0.07454497442471    0.73500193369493    0.15216865243574
O          -2.57044906787505   -1.94954499645798    1.94254374975626
H          -3.08308913541944   -2.19583383696026    2.71383578770442
O           0.31044467715047    3.17212169180985   -0.78524849339869
H           0.05944326199944    2.31143537120537   -0.37554544962415
H           0.69016995777639    3.69677743669239   -0.07881731871206
O          -1.38229303580702    0.40235546699943    2.43394975224363
H          -0.99338715250464    0.60743143733232    1.55817923223593
H          -2.24799931059934   -1.03314601393533    2.10384227076548
H          -0.62861490354020    0.17761777468169    2.98644441797327
O          -0.16530018303835   -3.00756289427337    1.41468671937759
H          -1.09719846992503   -2.75605952932310    1.60871813796879
H          -0.05464038781150   -2.87511056118072    0.45964898717513
H           0.64507910479134   -1.73308988085678    1.66178697422763
O          -0.50564211133110   -0.09809295696480   -2.64544806871880
H          -1.23498166783636    0.34744617754832   -2.20596437781262
H           0.75776401638332    0.89601327728769   -2.70584496383007
H          -0.17059452874918   -0.74496378278438   -1.97842856396260
N           1.58192603652582    1.49205042126546   -2.40069741488357
H           2.00692500895532    0.94926758631614   -1.57408019431755
H           1.19636297724784    2.36850890222078   -1.98139666347977
H           2.24593653848309    1.66176450397871   -3.14753747791515
