    26
        -50.46592468  Gyration_radius:  2.50508969214 Dipole_moment: 2.940
 S           0.14586520762224   -1.60753943789790    1.08544339300873
O          -0.92204909151435   -0.86503919136213    1.72041726003267
O           1.47310086339117   -1.10916562743016    1.38608380806767
O          -0.07582926244974   -1.75323319043554   -0.35001101189444
O           0.07561117456252   -3.06937358235136    1.68893031977867
H           0.87754578025882   -3.46030258923123    1.35828394293978
H           0.77794578939525   -0.62305762320344   -1.31053387840746
O          -1.24380423250039    2.96935765818030    0.57800016766089
H          -1.05563546994648    3.59382260215819   -0.12449828124919
O           1.19463282692138    0.15001966628756   -1.73923623207361
H           2.14473077907706   -0.01779806828839   -1.62124555328046
O          -1.70954469873262   -0.47246470703693   -2.03352710233350
H          -1.23106690521978   -1.15225819093698   -1.51736588011964
H          -1.01120865256897    0.01489455105297   -2.48415155053700
O           3.45014970029578   -0.61172461563629   -0.39109254682743
H           2.78912563466379   -0.86895909543318    0.28052919318754
H           4.00431743978391    0.04609600832508    0.03235464919046
O           0.88350210968522    1.43373606441301    0.60372637763140
H           1.01118515565370    1.14544583035953   -0.32636768818499
H          -0.39922690516778    2.47632480456052    0.73458333423411
H           1.04584968291844    0.63903374713971    1.13207261050178
N          -2.47238590822695    0.63764848891296    0.25532188507404
H          -1.88610261083793    0.02421124604746    0.89848828214419
H          -2.29662347875566    0.28731448362268   -0.72559865181505
H          -3.45230826166346    0.56846803321309    0.50651334810269
H          -2.11777666666087    1.62454276497692    0.36287981516187
