    26
        -50.45880587  Gyration_radius:  2.60654400629 Dipole_moment: 5.793
 S           0.87032540963861    1.45041248127920   -0.00636475840215
O           1.60105507801646    0.21917430184355    0.14696059781513
O           0.22870165578277    1.85166656943960    1.24648703814473
O          -0.13479151376679    1.36787990911621   -1.08175206700455
O           1.88133069865538    2.56769197687014   -0.41281921238587
H           1.31388944661222    3.30811429159684   -0.70653839560701
H          -1.23707862949892    0.29640262322990   -0.75218683920584
O           1.26306442994134   -2.03675517026479    1.98480519770248
H           1.98940394357209   -1.40839835002887    2.03741234409797
O          -1.96418798013503   -0.33346837659132   -0.47536606760684
H          -2.77960523751254    0.07545358339081   -0.77169936738352
O          -1.04651509941058   -2.62829547519675   -1.69649210226059
H          -1.41302306254225   -1.80578877941368   -1.32705419460724
H          -1.53583312648533   -3.35568730043370   -1.30914886448453
O          -0.08681078893078    3.94721131645636   -1.53991396567666
H          -0.34613790574766    3.00540251747088   -1.46239976544239
H           0.07451022023921    4.10877752094949   -2.47224024013095
O           1.46832686575108   -2.39330768062093   -0.58972442493851
H           1.31356058194370   -2.35625463329862    1.03997619306775
H           0.65349690439635   -2.52561850496309   -1.10596038786361
H           1.63754001283570   -1.43612917696434   -0.59242869445280
N          -0.77157519443568   -0.39686213071229    1.99160000478970
H          -1.29602941263207   -0.40770723881688    2.85988128643766
H          -1.38235580934020   -0.57326019988510    1.17664723959109
H          -0.33842646611357    0.57228523790743    1.80747496628023
H           0.03716496915627   -1.11293930237464    2.01084447951307
