    26
        -50.46507300  Gyration_radius:  2.5536644186 Dipole_moment: 4.277
 S           0.09378907149140    0.68522458898571    0.72322805338998
O           0.95413541658967    1.35378931921709   -0.24284132575648
O          -1.22059660509410    1.49555716357971    0.85799686683434
O          -0.27397452319449   -0.65702191219083    0.25168806503196
O           0.70171338653707    0.59532794663143    2.04554975813678
O          -2.11565568541506    1.22748760948637   -2.86408599542833
H          -2.93049928511382    1.42900164873051   -3.32643424766192
O           0.34282166035682   -2.91565072522366    1.47029326858110
H           0.02510423278049   -2.14360972450170    0.94620964781349
H          -0.34055067257920   -3.08990541002438    2.11921084904180
O           2.46699775750471   -0.68659487110763   -0.84178363547337
H           1.98967805383411    0.16885914968482   -0.71542285804526
H           2.63667775846520   -1.12318125220352    0.69732189149312
H           1.82366978389413   -1.26333101377481   -1.26270082969408
O          -2.69962888212102   -0.34034027416131   -0.76999837462832
H          -1.80381696734880   -0.57403294501858   -0.44878867626564
H          -3.04313514180990    0.26578466314627   -0.10788102392243
H          -2.34294822511802    0.55746859006466   -2.17908616340987
O          -0.94543535236215    2.96140823386347   -1.18872316550374
H          -1.36468313865913    2.43002693081063   -1.90372261317615
H          -1.20956975806729    2.17002353633329    0.09435958123839
H          -0.01965964406116    2.67163211445869   -1.15939613104576
N           2.42214181274301   -1.28446770594784    1.72470566648305
H           3.25574697037375   -1.35455477964605    2.29712264206630
H           1.80409788422610   -2.12515602484653    1.78762780425720
H           1.79358011212251   -0.45374486635908    1.99555096564456
