    26
        -50.47250311  Gyration_radius:  2.48725881907 Dipole_moment: 2.880
 S          -2.20589713402759   -0.34441497493654    0.39935736704111
O          -2.38467196653070    0.50858375390791   -0.76927487085255
O          -1.13925034091269    0.13097743498671    1.25958423924486
O          -2.07716989961722   -1.74311417867652    0.03772660320058
O          -3.53950701645185   -0.22973608864288    1.24681714195683
H          -4.15215606512278   -0.69390084583999    0.68678431769658
H          -0.67312031778204   -2.07434713330702   -0.63924175637131
O           0.56165257486258    2.22577633057857    1.17961698067256
H          -0.10875549011824    1.57493369385209    1.45854031393422
O           0.22960500979823   -2.27513151248330   -1.00119516871408
H           0.12746600657751   -3.05786234101779   -1.54456363075000
O           1.61377673030287   -0.03271627855210   -1.72692450463189
H           1.14653665393691   -0.87349015218428   -1.56199381494461
H           2.13865143693085    0.13137817636132   -0.92272320011115
O           2.60292311694217    0.41231964950174    0.80472988995783
H           2.03184933965854   -0.32978919391646    1.15933076479314
H           3.45277807068244    0.33049927767114    1.23771398622469
O           0.97444482070116   -1.47525443303313    1.55920103408477
H           1.39845292525163    1.72640178442938    1.15728634152107
H           0.14858315247293   -0.95331342982807    1.61117624596611
H           0.86765164295884   -2.01646645043541    0.76317762331504
N          -0.20472705699869    1.83444471985015   -1.30353013225136
H          -0.30763395141984    2.58721905019808   -1.97404528611403
H           0.51361510509810    1.11860698705136   -1.62005795481598
H           0.11220576221423    2.18479096687630   -0.34939417455648
H          -1.12730310886633    1.33360521715717   -1.14809835546615
