    26
        -50.45996694  Gyration_radius:  2.52931575565 Dipole_moment: 4.316
 S          -0.22077686572464    1.32299972977166    1.88364453948333
O          -0.03053498629151    1.37853841381481    0.45010787196048
O           0.87734259979402    0.60539223626110    2.53030638649705
O          -1.52296447667611    0.83976125791897    2.28743110042957
O          -0.13109677773342    2.82790500997304    2.39965310573982
H          -0.39561448338101    2.75024283046780    3.31112192869132
H          -2.11806513151201   -0.25750359062261    1.18586828432644
O          -0.29639508606238   -2.26368583481869   -0.18948718479124
H          -0.51042597150811   -3.15818663887419    0.07813986238687
O           2.33356240262999    0.29641719417053   -1.79048314046923
H           2.97314911833678   -0.03622869218233   -2.42137029927924
O          -2.34345075872209   -0.82894806401575    0.41791012711464
H          -1.10188676375453   -1.70651481485888    0.06260580834878
H          -2.44723259360484   -0.21668002068822   -0.32502436403310
O          -1.75816460103977    1.14244180057503   -1.47093126607061
H          -1.95140168011281    2.00714040072645   -1.83456750329594
H          -1.10270888866986    1.29066994731302   -0.74262408760826
O          -0.00680370488085   -0.67506272374157   -2.52322650387114
H          -0.12811083096419   -1.37429102416090   -1.86556335369667
H          -0.68084309469757   -0.00576068764427   -2.30137790589858
H           1.44058773577558    0.04063511821738   -2.14141991359176
N           1.84392672630881   -0.80464875862743    0.60152238787680
H           1.49930804523570   -0.16721482795336    1.39467032980221
H           2.64259848253217   -1.34830014748634    0.91226716874032
H           1.04603866852868   -1.42706210365920    0.33663201755870
H           2.08996288622754   -0.23205602989583   -0.24580537633953
