    26
        -50.45934806  Gyration_radius:  2.53841081657 Dipole_moment: 4.049
 S           0.25223132316725    1.05068620206711   -1.67266079109889
O          -0.90474814983079    0.24716331032916   -2.09465329011835
O           1.24261884312395    0.21963466153595   -1.03818135019437
O          -0.15270080888805    2.20551341148028   -0.89491157364226
O           0.89630153812944    1.63887594275159   -3.00082223098891
H           0.56747832779162    2.53253175483912   -3.03095599587659
H          -0.59660897057448    1.41529733566090    0.51067419927179
O          -1.07350606533966    0.82240462433016    1.13536287661332
H          -1.99768442007844    0.88682439382167    0.82133365118724
O           1.59673025554782   -2.66321467113321    0.09774187520593
H           2.01469978554628   -2.62561172071716   -0.76536071560195
O          -3.06993557732216    0.89461559820401   -0.65111188448283
H          -3.33462049081045    1.78948837517485   -0.86981703463027
H          -2.35605144072556    0.66822803141600   -1.28411851848347
O           0.85924420002330    0.40430205289779    3.06863908945430
H           0.14052762566712    0.67993788591366    2.47916520544857
H           0.45393852917111    0.01146767296844    3.84252614182736
O           2.63740226592074   -0.53678077347819    1.16466281518416
H           2.30078607407987   -0.05929719902144    0.38771072101439
H           2.14328448035461   -0.18635409232319    1.92426906803350
H           2.06198116824045   -1.94906016056246    0.62489788626954
N          -0.74954305061229   -1.51782161053697   -0.14556284851281
H          -0.79201959644464   -1.01707909807092   -1.06856539382482
H          -0.80607958104950   -0.73371098248840    0.55122235142808
H          -1.53100439978758   -2.15735260881325   -0.03987423787016
H           0.19727814469891   -2.02068833625498   -0.05161002561376
