    26
        -50.46929796  Gyration_radius:  2.49721205696 Dipole_moment: 5.053
 S          -1.38468703625991    0.94278321878399   -1.27754323720731
O          -0.27841633100247    0.20195175368332   -1.89630404267531
O          -0.92575424905817    2.00708020021801   -0.42429440886300
O          -2.32314717361742    0.02787337251663   -0.65255076547366
O          -2.16779573404517    1.61850227880427   -2.47477779191115
H          -2.61279071326788    0.86818746685455   -2.85304830983871
H          -2.06379092438164   -0.53743965004276    0.80734609232250
O           2.53173550312415    0.50034565274082    0.59879165949953
H           2.43776655173800    1.15851945980323   -0.12717301863395
O          -1.88688751247689   -0.88486637777378    1.72257842603054
H          -2.74837148350350   -1.00901651345753    2.12384446765251
O           0.05291864768950   -2.70040908117826    1.46563130738155
H          -0.73666958204419   -2.12350037417783    1.56395520354391
H           0.56020531201760   -2.59097499131488    2.27275933913415
O           1.64615433129864    2.02475728237593   -1.41994876148097
H           1.07729088912078    2.67114171696973   -0.98871766517686
H           1.01815205891311    1.36726741200727   -1.76947155071460
O           0.19293036117850    0.99638736395312    1.79831251134883
H          -0.20521957552040    1.50218730489072    1.06513470965258
H          -0.47825170285933    0.34335240445840    2.03531427044568
H           1.81112473314316    0.72954170193439    1.22502394786282
N           1.30020651165009   -1.45018872399818   -0.56903163412820
H           1.92381193770231   -0.70823751391775   -0.07018261757238
H           0.80988585547202   -2.02406466039759    0.15717587055538
H           0.60104631452067   -0.89439299040227   -1.12497969957500
H           1.84855300038985   -2.03678769334739   -1.18784433206942
