    26
        -50.45996682  Gyration_radius:  2.52941453083 Dipole_moment: 4.313
 S          -1.61054035617571    0.02530052412708    1.65955637045457
O          -2.65064104837655    0.27295177828614    0.66165483858952
O          -0.35557432962749    0.62484585644091    1.25963264733325
O          -1.50654597613401   -1.36927529383146    2.02910668559003
O          -2.06821330503933    0.79615492369300    2.97699410741893
H          -2.81025598443482    0.27770775230665    3.27275546549004
H          -0.30160307147294   -2.12478001514796    1.16353637847908
O           0.77887798952589    2.49080245150385   -1.38784600738829
H           1.10793631483640    2.98186861195458   -2.14172048183753
O           0.20780614923950   -1.45510187145960   -1.75750413863771
H           0.01081078796277   -2.20573581796965   -2.31901093200568
O           0.47331119813555   -2.39616472880010    0.62222114237946
H           1.22145146717756   -1.91066835345039    0.99918057734680
H           0.29968246460161   -1.83306924324930   -0.82412661922283
O           2.06814758867283   -0.27279715641392    1.48550105817547
H           1.15117400405778    0.10097912099226    1.44806546101055
H           2.50914688439397    0.17714609144631    2.20686029381887
O           2.31123743541929    0.35524149440205   -1.16477571798262
H           1.72453962425269   -0.32783570472089   -1.51880494681203
H           1.43344950885751    1.76197200632539   -1.22568259019658
H           2.38581697015055    0.15020671551520   -0.21399781441408
N          -1.28526703252929    0.78557964902587   -1.46324021857117
H          -0.57532883061747    1.54897120512003   -1.32352274272053
H          -1.89526985888583    1.00081244000863   -2.24526202626205
H          -0.75934282883197   -0.10295666945335   -1.63046037882241
H          -1.86480578516742    0.64784423336889   -0.56911040120359
