    26
        -50.45934889  Gyration_radius:  2.53814287324 Dipole_moment: 4.033
 S          -1.12815359993671    1.45002556676144   -0.76513544356370
O          -1.36885482488431    0.75668713072897    0.47401355327446
O          -1.17820681283951    0.51558957741591   -1.89932361839668
O           0.08105644787610    2.24994690269606   -0.78242262410332
O          -2.31942493163394    2.47919556249985   -0.98134186479782
H          -1.88552196505487    3.24987835039901   -1.33533446046485
H           1.17295511132484    1.06122901868251   -0.34481983283443
O          -1.58225055945767   -2.13383194944963    1.60959225908888
H          -2.46784357943798   -1.78299428287166    1.49258082517933
O           1.71227774186683    0.23793855783002   -0.36539064929347
H           1.92360399934698    0.14919216588601   -1.31635578627018
O           1.24969015914061    0.24924690257757   -3.00523587030100
H           0.31741789034944    0.36296960386924   -2.72316718499662
H           1.49650100224739    1.07699247727296   -3.42062263127687
O           2.20589726843490   -0.15387764101773    2.32722823412944
H           2.91204288841072   -0.79198358895101    2.43419727855097
H           2.16656949548450    0.07270407983003    1.38539236176274
O          -0.50773386436230   -0.14373593534403    2.88626072428235
H          -1.14056089051997   -1.47942611177844    2.22661773053016
H           0.46258775130427   -0.12027731405382    2.84752988756940
H          -0.81520198699593    0.41012099686795    2.14893267318111
N          -0.25999098979720   -1.57441053292308   -0.58463130386962
H           0.59277905631951   -1.01925676834148   -0.32362822365392
H          -0.00995757585323   -2.39159514303685   -1.13283705371153
H          -0.80911191149419   -1.83781909795115    0.30271960370666
H          -0.82056533983587   -0.89250853759749   -1.15481857372037
