    26
        -50.46294116  Gyration_radius:  2.45906505289 Dipole_moment: 6.740
 S          -0.40636964581473    0.69339800737087    1.27340901760036
O          -0.01728342940016    1.24948413954391   -0.03636472395342
O           0.71429121401802    0.77223468240333    2.20831062277169
O          -0.86906587992974   -0.67545620537946    1.12034011903249
O          -1.54477673268101    1.55831244647453    1.84427834474079
H          -2.16778390398531    1.65539546700390    1.06547957208467
H           0.07349194558784   -1.76841421042327    0.54647309912631
O          -3.07425633385575   -0.63747703492102   -1.67541124469436
H          -3.40721923063506   -0.53334366997900   -2.56849364807228
O           0.77257333075420   -2.39358270276936    0.18946546708412
H           0.51839046824956   -3.26528266763029    0.49648514637078
O          -2.68890764278434    1.71559485738702   -0.43890882840372
H          -1.77957975711116    1.81041255394453   -0.75219379160137
H          -2.99027738123085    0.84236776610411   -0.78122049536754
O           2.53906651305758    1.32923105288754   -0.66519319546377
H           1.56193525732573    1.35773078800742   -0.52525795965165
H           2.85614362236696    2.20957276360541   -0.45684730844179
O          -0.39174166893329   -0.70062020042034   -1.88081829501794
H          -0.23745523603565    0.03624208495852   -1.26097081616228
H           0.03346386435072   -1.46492237858756   -1.47698815772244
H          -2.10523842042994   -0.78281719865017   -1.76034421160924
N           2.55909447254351   -0.62627635271872    1.11431279147100
H           2.79102580537489    0.04496588321504    0.33793421032035
H           1.83867074014346   -0.07624121786342    1.70927821098303
H           2.04583962179194   -1.45066087325893    0.72423434382966
H           3.37596841730458   -0.89984780031001    1.64901175065030
