    26
        -50.46294110  Gyration_radius:  2.45924369135 Dipole_moment: 6.741
 S           0.03500884891666    0.04480113182118    1.50488581508647
O          -0.89404148660202   -0.64452043690605    0.58965687642572
O          -0.57170189772670    1.27597459253331    2.00721746715872
O           1.29442566492752    0.31471740934382    0.83226932393812
O           0.28696209322695   -0.87218942379014    2.71548867181279
H           0.47009939960899   -1.76141248902905    2.29146328188394
H           1.33522594025848    1.20667814982479   -0.43875029516199
O           2.15190079503444   -2.70485425012089   -0.85218872949447
H           2.11200328795934   -3.45621376015522   -1.44643777232016
O           1.24667069284469    1.81319027887727   -1.23320823203093
H           2.10499704378792    2.22692790501591   -1.33731316001350
O           0.46161630415413   -2.94234218863315    1.22169391201272
H           1.21822133513332   -2.90298467342191    0.59199254906554
H          -0.27511118070023   -2.52094284900349    0.75942543548087
O          -2.77841325631434    0.76355816250593   -0.59466683600093
H          -2.12120286476287    0.14377386272580   -0.19575133249574
H          -3.57881790960799    0.65978056448490   -0.07750595959808
O           0.37475248467198   -0.91492985633948   -1.78997082786748
H           0.72591206285506   -0.03224369151485   -1.94973683868908
H           1.59570441787528   -2.00383002687465   -1.26038392977420
H          -0.12880998927462   -0.84416901699881   -0.95787882005709
N          -1.01842357509669    2.67190438571314   -0.09228301782537
H          -1.81537693285872    2.09631934899664   -0.46715541655622
H          -1.25340049413888    3.65480322232731   -0.01023615546846
H          -0.81237579096600    2.21283316355868    0.86806479435370
H          -0.16582499327286    2.51537046514596   -0.67869079388470
