    26
        -50.45499978  Gyration_radius:  2.40441277751 Dipole_moment: 8.858
 S          -1.80338586728281    0.45536035044873    1.16742666979137
O          -1.02788303348884   -0.08145623992097    2.28064134605294
O          -3.21456606607167    0.51867317458934    1.33097832366000
O          -1.52238973152649   -0.58410754898702   -0.04099335242010
O          -1.20628919614068    1.70876195055906    0.66758218542796
H          -1.35372902305394    1.72211714088448   -0.89115319773532
H          -0.77269519393964   -1.08826539917772    0.31376727664091
O          -1.38553125890075    1.50190107149643   -1.86608894399819
H          -2.19705335713354    0.99892801931799   -1.96632795948796
O           2.25541458532837    0.37664672494844    0.32363516411452
H           3.17177196066429    0.65432667243638    0.34701192982810
O           0.13055669797631   -2.57604811964946   -1.42952304212081
H           0.41689698678353   -2.60187097120674   -0.49955525784956
H          -0.82358036031119   -2.68771697779544   -1.41387406427594
O           0.62503883757123   -1.72364034664909    1.13935191697193
H           0.08342932522811   -1.24825541295594    1.81374742340913
H           1.38035612875224   -1.14033393845213    0.96388581243010
O           0.95492776992149    1.74164276634183    2.06161848042621
H           0.58362602219789    1.11884974303098    2.70097569458175
H           1.77592870001967    0.95393050541635    1.00719873076532
H           0.16042222661559    1.95585916427311    1.51397344301548
N           0.76466310016877    0.00586867335572   -1.91808629698682
H           1.28507637681227    0.16428248111306   -2.77502599754680
H           0.49885652615259   -1.00751854828933   -1.82916119235960
H           1.35144311693177    0.25218523023746   -1.08846151797221
H          -0.13130528326370    0.60987982462679   -1.91354356435737
