    26
        -50.45879820  Gyration_radius:  2.43213709389 Dipole_moment: 2.693
 S          -1.88041032065034   -0.66778402846123   -0.31517935507731
O          -1.18680340147714   -1.90549364576947   -0.01876452009344
O          -1.42552867727619   -0.08947542255057   -1.57639686878966
O          -1.84950823638316    0.29213889548325    0.76733442472400
O          -3.39937299081891   -1.06467307151556   -0.52236546419797
H          -3.29328661144026   -1.90342693414755   -0.95733645638671
H          -0.68188118511197    0.27864800145290    1.85098842125307
O           0.07425759017135    0.27744426432216    2.49687293463426
H          -0.30070841348166    0.52401978715637    3.34323931770036
O           0.91041744574837   -0.86747347479525   -2.36956879600256
H          -0.01194424922888   -0.66179204211276   -2.06838522758160
O           1.73069069908599    1.47894594240073    0.69375660549170
H           1.01452755690714    1.87892907477405    0.11203601951245
H           1.25801282639847    1.17545291269120    1.49040533161504
O           2.37378488927484   -0.72138201432867   -0.27516415552607
H           1.85211755389972   -0.81624037401929   -1.14310946764631
H           2.17799753208104    0.26184618649229    0.10413154670439
O           1.01491212308944   -2.01900948467748    1.37458398327655
H           0.18511064459099   -2.13807529187106    0.85221590821872
H           1.89167118445963   -1.35977567184285    0.41831377112824
H           0.79323539095701   -1.32314087250824    2.01896270444874
N          -0.32837471558324    2.36169477708146   -0.69361654694156
H           1.09789931800690   -0.26101120519898   -3.08839360518810
H          -0.75927113647187    1.51470722231704   -1.06775527382530
H          -0.97071288320783    2.70650240478034    0.00974079922436
H          -0.28683192354431    3.04842404484431   -1.43654604068887
