    26
        -50.45499974  Gyration_radius:  2.40440787803 Dipole_moment: 8.855
 S           0.07117416556642    1.27763690923495   -1.78428075061777
O           0.14210363042594    1.47286746840200   -3.19104173631879
O           0.91689690992459    2.12570416446674   -0.95102315005316
O           0.61455134311998   -0.21943447460427   -1.49549413211171
O          -1.30710809484549    1.23333891118274   -1.25921555906203
H          -1.84895097690112   -0.22225581378498   -1.45793863729456
H           1.16949668745555   -0.07112303301813   -0.71310936228766
O          -1.97654928967695   -1.21261611747223   -1.51100300441695
H          -1.49617607197611   -1.46869076445961   -2.30177838089900
O          -0.36154419192592    0.40219639547631    2.24534109431987
H          -0.66188588416103    0.50730165172706    3.14874429383232
O           1.97457762033820    0.46439776086505    0.73749047566781
H           1.32723954687548    0.49073598132189    1.45984757246191
H           1.78971794321024    1.26894618108136    0.19636985748770
O           1.91487542325813   -2.23349727069031    0.20218117129966
H           2.24408329547183   -1.37366543911988    0.51821139756420
H           2.07621928011954   -2.24453034488856   -0.74486522191573
O          -0.97279106691419    2.52364515953000    0.94064659418899
H          -0.14935075175617    2.91457139078353    0.61890665579469
H          -1.31916784242778    2.09471471921176    0.12023128477809
H          -0.64157275252960    1.24987306140790    1.76245626396753
N          -0.70718949011915   -1.80825301194857    0.70225570736048
H           0.28753366701026   -2.07140384747746    0.48578515051901
H          -1.22376706217341   -1.58284601011314   -0.21959646837680
H          -1.17870722876646   -2.56470929419670    1.18777117316233
H          -0.68370880860428   -0.95290432290872    1.30310771094796
