    26
        -50.45499977  Gyration_radius:  2.40441307003 Dipole_moment: 8.858
 S           1.91707197678580   -1.06023493061033    0.15128996709144
O           2.09133296126451   -0.61795315076334   -1.22815607300630
O           2.72501926919844   -2.14439895450553    0.59183706062487
O           0.38277029138262   -1.57259140685903    0.20593855981845
O           1.91177129172612    0.09054673865872    1.07493029867606
H           0.85697153924229   -0.19841739151089    2.19524456553897
H           0.03538598278992   -1.21817512351722   -0.62819534461186
O          -0.62402710028571    2.07636200806950   -0.79575994643239
H          -0.89285206474921    2.97960916978362   -0.96673157046743
O           0.05297181625272   -0.46251510052457    2.72803536115717
H           0.10300182509816   -1.42036367922684    2.76856379629170
O          -2.40418265463494   -1.54731652685990   -0.72232392987200
H          -2.00586689100450   -2.38108657625699   -0.45919303013768
H          -1.87578054846754   -1.22524988746292   -1.47375495722666
O          -0.33869404384818   -0.36293938803927   -2.10069878607286
H           0.64367302878289   -0.44866009171211   -2.05867646331598
H          -0.52163412527127    0.56466792967541   -1.88242325970807
O           1.93429288872091    2.01341926503066   -0.63317039598687
H           0.38770662196589    2.10096485983597   -0.71757768033754
H           2.01532160107401    1.43379389263834    0.16336281658250
H           2.25500066983484    1.42545517298698   -1.33027116088977
N          -1.74402753672970    0.40284185155358    1.02918879194940
H          -2.06978151676919   -0.38803132281997    0.41767289825626
H          -2.52753234545236    0.81746727239615    1.52363105021138
H          -1.01748452992679    0.02915557647433    1.73633321533830
H          -1.29042839698422    1.11364980355528    0.41090421653082
