    26
        -50.47194227  Gyration_radius:  2.49792740453 Dipole_moment: 3.372
 S           0.12969403325498   -0.72406882396665   -2.08628503826582
O          -0.78984697598370    0.32880388223461   -1.66848341101106
O          -0.38409549415458   -2.04338095842306   -1.77336020718884
O           1.48124182440203   -0.49662361180719   -1.61425248914309
O           0.20659526516146   -0.64119390630037   -3.66658668436103
H          -0.65285365286488   -0.95708763204138   -3.92483143509059
H          -0.57607945818887   -2.30362219119100   -0.21483000622731
O          -0.66519711986613   -2.38464110403880    0.77240322533380
H          -0.82562479634799   -3.31368814942133    0.94594113165819
O          -1.37854107022268    1.63460753887597    2.33237009982008
H          -1.66297748243633    1.27763366958887    3.17457583628825
O           1.08419217573584    2.08521502640561   -1.17798612271344
H           1.64499949318081    1.34314859329685   -1.46124433340498
H           0.19557398177415    1.74354743332032   -1.40084249928049
O           1.65813265297956   -0.97840537032690    0.99244792336500
H           0.87123832246009   -1.53997137699173    1.11548162858116
H           1.75197746351448   -0.89882380368773    0.01959174427660
O          -2.21704439124495   -0.09417709079751    0.56001808371677
H          -1.81930809227485    0.12599280089104   -0.30468127822132
H          -1.82982207800665   -0.95151908797835    0.79538609017424
H          -1.78774180206970    1.04988663072086    1.63603743708613
N           1.12115093225845    1.56297299781910    1.41058320768022
H           1.80863123236300    2.07712152802259    1.94979033425249
H           0.16155475763064    1.66321404966319    1.82993213860465
H           1.10222745672596    1.90819700696270    0.40145351167050
H           1.37192281221856    0.52686193921836    1.35737111242156
