    26
        -50.47194232  Gyration_radius:  2.49770126541 Dipole_moment: 3.372
 S          -0.01420503615864   -2.19591970576464    0.25846028380409
O           0.05834041356429   -2.13465373892240    1.70538768404970
O           1.08934699195138   -1.47819190242945   -0.37038262335891
O          -1.30334435163348   -1.80766230518862   -0.27877726455641
O           0.17197762777838   -3.72032924282850   -0.13089130673301
H           0.93365251202280   -3.96671003035941    0.38305188015700
H          -0.06616501024182   -0.65940564632685    2.29060759914967
O           1.41843206123164    2.74294764139304   -0.68663030535291
H           1.46588177677395    3.51069048993106   -0.11572985719468
O          -0.15196401993772    0.29038135862930    2.57281235844289
H          -0.28511603927289    0.27112870440892    3.52195664830795
O          -1.99449195768779    0.60556496730998    0.59060059107832
H          -1.91626802894803   -0.33110629086223    0.31104485732233
H          -1.42377158954547    0.67280292474070    1.37764490852569
O          -0.27059905671399   -0.78773656923358   -2.49417407864108
H          -0.96799171878503   -1.27421802686471   -2.02261616729279
H           0.50962319367374   -0.99964213658247   -1.94416451900009
O           1.99350004762927    0.72045606061527    0.86624204512397
H           1.80658178672095   -0.10703615745429    0.38176209080340
H           1.74594361884068    1.97578362564397   -0.14027452490473
H           1.35068896289325    0.72839283916250    1.59225663009775
N          -0.83645766234341    1.61165410077253   -1.54664501684273
H          -1.42478479364858    2.18733349055982   -2.13840266885667
H          -1.35612120860050    1.31249640009653   -0.66352252303537
H          -0.57225197913562    0.70751826462953   -2.04714281235859
H           0.03956346955856    2.12546088482882   -1.27247390883345
