    26
        -50.46507293  Gyration_radius:  2.55356095655 Dipole_moment: 4.275
 S           0.75957259733295   -0.28014705694633   -0.58891870732601
O           0.92664914962787    0.72916344770645   -1.75326059775758
O           1.14605319844403   -1.59763401098391   -1.07983009679869
O           1.58018234240352    0.16204341322048    0.52982139948548
O          -0.66327591081214   -0.28303792059064   -0.22191228199364
O          -0.27113196441549    3.74426720255698    0.29728950149950
H          -0.51832002877237    4.62846102457461    0.02260618906451
O          -2.21249516322817   -2.41935956339821   -0.16815267277272
H          -1.74586329872187   -1.55124079969632   -0.18420377600335
H          -2.56602429960385   -2.54216944075197   -1.05043542400722
O          -1.59549846527772    1.98447021028944   -1.23034820007553
H          -1.36322964858065    1.13847223583056   -0.79374804581381
H          -0.85953583323021    3.12579512909567   -0.19368356727670
H          -1.10626968655980    1.97179394548229   -2.05755635033792
O           2.03302394413030    2.59644832421196   -0.44844806765474
H           2.18423599098130    1.91365629523149    0.22446154619947
H           1.41250971562790    1.53193548247990   -1.35619843954793
H           1.26960672603147    3.12451744284595   -0.12029330156810
O           0.33735706102371   -1.14215838870597    2.41768891049878
H           0.90763549942551   -0.60038613276709    1.82027054084806
H          -0.51872249627781   -0.70596332404926    2.39690744641242
H           0.25892140784034   -2.49505248402079    1.55107201677430
N           0.17929461910770   -3.15271446225920    0.72111867593327
H           0.56784632746900   -4.07076997630182    0.90466121962139
H           0.68361834069967   -2.63311520426698   -0.07520998447693
H          -0.82614014469179   -3.17727538881909    0.43630206707431
