    26
        -50.46739096  Gyration_radius:  2.56857480887 Dipole_moment: 4.810
 S          -1.30945122908719   -0.60711759554003    0.61103495143317
O          -1.16848154938039   -0.65219845989996   -0.84375680506202
O          -1.02020699451176    0.71896819629634    1.13135737582054
O          -0.50173100244150   -1.63904797960129    1.25331903146798
O          -2.80962706840585   -0.88547004263223    0.95401277067024
H          -2.90889623911907   -1.85294343999037    0.85536925922150
H           0.99375085591017   -1.88290763955795    0.15111839188981
O           1.14513005699168    2.34000766726511   -2.13540075661708
H           1.09840317984400    2.09481888358435   -3.06082231420182
O           1.25627563537589   -1.59366718509959   -0.73902029915782
H           0.38675752055366   -1.31635213855186   -1.10043912908932
O           1.35032591496187    1.39757001930037    1.93535859170587
H           0.44163091111045    1.05757289113470    1.73207010411315
H           1.22493164013902    2.30459881787817    2.22088599380898
O          -2.32289375174371   -3.49300340359875    0.96814014846295
H          -1.47804560767687   -3.00790219833470    1.08166194352123
H          -2.49477296047579   -3.93671614268722    1.80156052946668
O          -1.28602368199722    1.93984028783776   -1.26602534680124
H           0.20496776088211    2.28776064865462   -1.80065950052569
H          -1.34882702404295    0.96774801662433   -1.36517555341384
H          -1.33196198037175    2.03913049154561   -0.30567209322782
N           2.40071590940068    0.74906791523557   -0.42000610771156
H           2.01267155163806   -0.23688087860742   -0.57696755623346
H           3.41272220738160    0.75478979206663   -0.48394817712988
H           1.96958044500783    1.39685350472169   -1.13642623222190
H           2.08305550001718    1.05547994194362    0.53843077981286
