    26
        -50.47194206  Gyration_radius:  2.49771248683 Dipole_moment: 3.372
 S          -1.32146367259219   -1.53488548310415    0.88751682209913
O          -1.34208225439830   -0.91573152096519    2.19853055658257
O           0.03919951036188   -1.81671814713970    0.44273012472777
O          -2.09125454488110   -0.81769593159036   -0.10946903179906
O          -2.03260019132933   -2.94142420283547    1.04902666146053
H          -1.59679294274844   -3.29936602188194    1.81519271197813
H          -0.62144639108363    0.50263186587199    2.24682364797972
O           2.80717539496601    1.05569107654557   -1.00692074679142
H           3.25087381045776    1.85006525792956   -0.70732831099604
O          -0.15577377723217    1.37964980111294    2.19093611428976
H          -0.35269905123262    1.83411399631172    3.01168625546113
O          -1.29845920588563    1.71336537850397   -0.25943070053612
H          -0.86124138815290    1.80612380800637    0.60662418754981
H          -1.76355367643955    0.85161402190032   -0.20746842783984
O          -0.48408637709960   -1.50721704998674   -2.09993867644473
H          -0.02507829220713   -1.82731146186752   -1.29792603805579
H          -1.37025186822053   -1.32201113746179   -1.74562363907667
O           1.96169589632448   -0.10119505452139    1.17909917558413
H           1.39147365072432    0.53646164705809    1.63575236542023
H           1.36338912891967   -0.83276548898905    0.93160156930141
H           2.57797752544179    0.54355886838141   -0.18252517896695
N           0.39418442176568    0.98345962559282   -2.13634064584380
H           0.30490221318579    1.46549950874920   -3.02369150474844
H           0.11580414776117   -0.04121865495138   -2.23690133541416
H           1.38001765075491    1.04167071250776   -1.77375215153356
H          -0.26990970713217    1.39363460676260   -1.40820380439295
