    26
        -50.46739092  Gyration_radius:  2.56863980032 Dipole_moment: 4.811
 S           1.33096867985295    0.06649792920283    0.82562399782034
O           1.55087074758029    0.27502526959970   -0.59599597908691
O           0.45073460450651   -1.07573329593818    1.06795359903852
O           0.83348870586177    1.26790541708161    1.48816762618210
O           2.73189861061214   -0.27373926344634    1.43168537772926
H           2.62212740799308   -0.13920647123136    2.39375876976552
H          -1.03517557776255    1.11293819407079    1.50035816972074
O          -1.72722485715971   -1.89791195274390   -2.18161887922090
H          -2.20330135196669   -2.63137070440296   -1.78898258211023
O          -1.67492662698193    0.40892595035589    1.30069319977429
H          -1.08895633473662   -0.37818822830412    1.32728374928281
O           0.06926642785672    1.87379980731150   -2.00150157666144
H           0.67971187922069    1.37094305019222   -1.40388523493547
H           0.45550337834308    1.80470454969759   -2.87671706627123
O           1.94749662481065    0.67924291215870    3.77922466753580
H           1.36593994058057    1.03927810129280    3.07632862743679
H           2.46249133497423    1.41855761884953    4.10986847514116
O           0.71219714773246   -2.19718737218137   -1.29513025523378
H           0.57014806019349   -2.04479371387294   -0.33841732469465
H          -0.76945421007737   -2.04299174185016   -1.93571371319816
H           1.26227919552112   -1.43819628753698   -1.53136993395538
N          -2.13179811251308    0.56699087441944   -1.28119980119101
H          -2.03043576012897    0.52487853594107   -0.21573199726466
H          -3.01692176673480    0.98547852001262   -1.54519596445448
H          -1.32256785015612    1.13870952053201   -1.64406171042256
H          -2.04436030738894   -0.41455722919498   -1.66542422073910
