    26
        -50.44237002  Gyration_radius:  2.55872256535 Dipole_moment: 4.594
 S          -1.86831850360245    0.86284518642911    1.38390448809822
O          -0.72597518971048    1.53577896070596    1.91928605564789
O          -2.28480802308735   -0.36160600748988    1.97630472352534
O          -1.69135490069391    0.67913306032887   -0.12486132742315
O          -3.07891188667291    1.87167774722947    1.47970587338358
H          -3.87847951541545    1.35044653656565    1.49721516382074
H          -0.97614322966755    1.40231098335119   -0.42613515126068
O          -0.40411126576540   -2.27415612284855    1.16905622165870
H          -1.15816756885695   -1.83713643863997    1.58467403636837
O           2.19673819358214    0.87042525362606   -0.74061781912858
H           3.04583906531986    1.22280042956403   -1.00935230366445
O          -0.91114583629085   -1.78388896256761   -1.42119902376867
H          -1.38807831019243   -0.96628831761947   -1.25253922648768
H          -0.72537664327940   -2.14945072447268   -0.52773685256399
O           0.06319877458341    2.37619942297805   -0.51880992080392
H           0.89232335964675    1.84990752100840   -0.68615853065348
H           0.07707335161161    2.59099981699886    0.42500791196784
O           1.37640623108104   -0.26451417580044    1.68401094581970
H           0.36809084331515   -1.72219653124417    1.39560867740056
H           1.78034240520462    0.09582911272030    0.87923109581920
H           0.73822709866616    0.39488222590728    1.98517439733415
N           1.72064614785730   -1.21591386829589   -2.20802590089294
H           2.27715164947718   -2.01049894019295   -1.91771712013209
H           0.73969229686351   -1.44669338059481   -1.99724800329962
H           2.01130366092098    0.05682314454773   -1.33582359684839
H           1.80383779509651   -1.12771592222219   -3.21295480391439
