    26
        -50.46043289  Gyration_radius:  2.54038530258 Dipole_moment: 4.795
 S          -1.45541410432923    1.48707457379563    1.33577051381687
O          -2.51236549625310    1.10852018250533    0.39736754424530
O          -0.64934317502280    2.57643828682018    0.83292368222187
O          -0.68452447818988    0.32401853049172    1.74942492704741
O          -2.17463784037092    2.02012010729462    2.64350967206429
H          -2.37483886032715    2.92491103859230    2.42311702437978
H          -0.88138624241697   -1.16226115467535    1.10967611074119
O           2.01590542630712    0.04337048586048    1.26292072068885
H           1.15623244904456    0.12176974798688    1.70585473253640
O          -0.98810197350213   -1.99050333263818    0.57584326975284
H          -1.67398871278805   -2.49950569360674    1.00899164181082
O           1.07064687369036    1.36993227202402   -0.76284286843609
H           0.53768978776884    2.03059441174798   -0.27211753597865
H           1.57462463772790    0.91399628561121   -0.02659983078803
O           1.70217658697673   -0.74542273098617   -2.47184479805198
H           2.56375690331705   -0.86056277639433   -2.87536876749065
H           1.71369639047627    0.12343537154734   -2.04258385020104
O           1.70601085160618   -2.27261397882452   -0.11108878852859
H           1.68427763979536   -1.88385875440606   -1.00079681916883
H           2.06014143780614   -0.87060565991492    0.91133800763983
H           0.78493119009455   -2.41207651426853    0.14918841933645
N          -1.04143185106560   -0.08231831352443   -1.34379201342160
H          -0.12492613230560    0.45684360021814   -1.18891172172857
H          -1.26862820755906   -0.14008590680967   -2.33075905656730
H          -0.96516614919400   -1.01988559737547   -0.91442308970350
H          -1.77533693161095    0.43867551916650   -0.76479711625072
