    26
        -50.46826939  Gyration_radius:  2.47244797312 Dipole_moment: 4.449
 S          -1.05308056646713    1.05171575187337    0.86494567250263
O          -0.23763693162178    1.53541221893783   -0.27118961694149
O          -0.78635882369854    1.80211036702421    2.06521102491494
O          -0.80944509505287   -0.38458352808049    1.03722963142245
O          -2.53976681410246    1.25272279186569    0.49090626262931
H          -2.76218037879850    0.65068662199347   -0.27436000787148
H           0.49547906683458   -0.56489483255441    2.64567996050313
O           1.02770588148010    0.17797809622198    2.96020478632174
H           0.38186101333916    0.92025784576926    2.91164256198461
O           2.63160372891530   -1.53094165036081   -0.49946443786388
H           2.90017021041345   -2.23043059914410    0.09876332107993
O          -3.06386244975376   -0.16769251841966   -1.61992283800732
H          -3.71875576613937    0.32277234471680   -2.12015787891303
H          -2.19707040677487   -0.04861070501842   -2.09949928144749
O          -0.65642169229073    0.23966841431477   -2.55426803806450
H          -0.25195706342607   -0.59310073014880   -2.26397966213591
H          -0.45543903861479    0.86928814905222   -1.83126195191104
O           0.00591752341708   -1.86837603000068   -0.90046079061182
H           1.70865595317601   -1.73204437410436   -0.76375616094186
H          -0.33008666807122   -1.29029853522201   -0.15803855989548
H          -0.60557903263395   -2.60483987386091   -0.94895966760831
N           2.09193565633417    0.84838937220695    0.64045182031424
H           2.41215903796089   -0.01891710379074    0.14505286247764
H           1.18969683636865    1.19956854653973    0.18429377538927
H           1.81756782331682    0.59425607546900    1.63922474758719
H           2.80488800614059    1.56990386455623    0.62171247519913
