    26
        -50.45387493  Gyration_radius:  2.63092456939 Dipole_moment: 5.313
 S          -2.58956435591899   -0.48505575585246   -0.06053217633348
O          -2.52383585830300   -1.26401441766605    1.14392190466027
O          -1.49195370911800   -0.83751059225963   -0.98010503264168
O          -2.63294085111016    0.95171462462005    0.16221294662749
O          -3.93134398732902   -0.85818639145369   -0.82084465932990
H          -4.01695346813324   -0.19495744776625   -1.50169700488786
H          -1.54783726904111    1.06796109965276    1.30294701399180
O          -0.85645879533078    0.95714622111533    2.01508124323020
H          -1.35881544323235    0.84976319100978    2.82535909758035
O           2.69667038162575   -0.30303591035516    0.55240616066521
H           3.42461541140553   -0.19156561088242    1.16417954813258
O           0.24507050086101    1.02049372425566   -1.88663055199182
H           0.94350776898520    0.41567399760210   -2.19301120985295
H          -0.49930690894840    0.44206688912158   -1.64371889796895
O           2.47659400320347   -0.60501482054799   -2.20731797178293
H           3.16291234720253   -0.09404653604192   -2.63956129539182
H           2.67472815401355   -0.59335073284458   -1.25688206648257
O           1.30147816313235    1.84670813063979    0.38736046378171
H           0.57744890437518    1.81689364141512    1.02459921314030
H           2.22582864970764    0.59341013975442    0.49985398015068
H           0.87868415379598    1.69915452028455   -0.49860761938478
N           0.19844827390682   -1.27036047530799    0.92968567334527
H          -0.37619440030990   -1.21681521486616    0.02961369620777
H           1.21664858937222   -1.12990953147738    0.76177043364304
H          -0.17980352299349   -0.46812386869619    1.49965095116329
H          -0.01762673181606   -2.14903884344961    1.39026614973293
