    26
        -50.45756276  Gyration_radius:  2.71377786657 Dipole_moment: 4.222
 S          -2.03091090209427    0.05480299800252   -1.96061976204691
O          -2.80710482438192    1.07897365424066   -1.32446599893941
O          -2.24567576140621   -1.28179397083049   -1.41003081722022
O          -0.59500876007517    0.37440294246174   -1.96337730895224
O          -2.46641797559137   -0.02744175728871   -3.48264268332455
H          -2.04537972061784   -0.82418260875446   -3.79416670326809
H          -0.57824642300709    1.24248908916986   -0.63663192882853
O           2.32510820727879   -0.14028086000880    2.63436638218731
H           3.26128517937054   -0.31286779315846    2.74514265574660
O          -0.68124921351151    1.66490341218342    0.25963880413196
H          -1.49831822767829    2.16505090575045    0.16183617213191
O           1.70208865691990   -0.67608687908218   -0.98283484442670
H           2.02335175358970    0.13441299372001   -0.56479561583308
H           0.89737084226436   -0.41087238280457   -1.46347591083098
O           0.98065483988680   -2.01269314678768    1.19832649155920
H           1.31555355677310   -1.71050805719775    0.32007461827217
H           1.46323619850365   -1.46534299412167    1.84965352208753
O           2.00782870428526    1.70583950623100    0.60648389019641
H           1.03615456038176    1.78827711053119    0.55241106624279
H           2.36924797156253    2.56708421518071    0.39260698984720
H           2.24984195826531    0.57075581450272    1.97383398273006
N          -1.35147179191466   -0.89779699308642    1.00179387709471
H          -1.13843295692367    0.11781257081809    0.95072606261942
H          -0.41844268572940   -1.44025043833072    1.13816388040269
H          -2.01248996213069   -1.09978275291712    1.74383741442497
H          -1.76257323400126   -1.16490458843162    0.05414577401737
