    26
        -50.46053959  Gyration_radius:  2.59378921553 Dipole_moment: 3.621
 S           0.88157886316968    1.66376908127700   -0.86876964645291
O           1.66270574814278    1.36655950870384    0.32284639711959
O          -0.32945220470464    0.86561574361147   -0.92821244820575
O           1.66661252791644    1.60372872756911   -2.08168371724603
O           0.38841309811329    3.17591309493766   -0.72749128712984
H           1.13030733201893    3.69151366020335   -1.03046325446612
H           1.53145826155030   -0.03136849582435   -2.44699408414173
O           1.32352415568538   -0.99082601076223   -2.38413344833892
H           0.36403115234433   -1.03963044886352   -2.43051077785533
O           0.02864434245131   -2.58103504379017    1.29496704076196
H          -0.06036751323564   -3.51102179373003    1.08143122198357
O          -3.14258426065002   -0.05417144140318    1.74535875612904
H          -2.88764918647968   -0.38200987293639    2.60960857437377
H          -2.62284354776460    0.76204661794165    1.60845984169541
O          -1.38460050985431    1.95829476719817    1.27285885661134
H          -1.40942283750983    2.90137970500786    1.10447469814674
H          -0.96530788392791    1.56575633114966    0.48613745462666
O          -1.72055161250739   -1.34602220422034   -0.15952272713083
H          -1.26411942935348   -0.56663701991012   -0.51703006246903
H          -0.69880199424043   -2.11432998837903    0.78138101591808
H          -2.38960900281205   -0.97473611045426    0.45429284051954
N           1.99755745973510   -1.21087246067048    0.17624954793778
H           1.27187222497497   -1.77222736348804    0.70895494856435
H           2.93853700645520   -1.51972518614891    0.39603372824989
H           1.79985280358471   -1.28446647836758   -0.86050419372355
H           1.89021501686735   -0.17549730870469    0.39226072453271
