    26
        -50.45387494  Gyration_radius:  2.63101720646 Dipole_moment: 5.313
 S           1.33413001167075    2.08228792446896   -0.91123854807166
O           0.44616037915470    1.10679649643062   -1.57040064279963
O           2.59594622452233    1.48575534088415   -0.57387722098706
O           0.65858506221841    2.71811325145355    0.20908395064474
O           1.59503414322141    3.22542160925265   -1.98029317450630
H           0.77081228033063    3.70391747933200   -2.02953471506230
H           0.91941489108176    1.62691521122697    1.31985762724362
O          -0.57525232177336   -2.60405002769062    0.74801353613185
H          -0.52568064008944   -3.29657702328596    1.40719894073778
O           1.18466254022067    0.85246515112979    1.89192980288307
H           2.01811364444442    1.11737857757892    2.28640528304698
O          -2.00524341635356    0.53836230978366   -0.59081097817110
H          -1.18370325605100    0.90153533218200   -0.96606007526623
H          -2.15334556774128   -0.29551330114649   -1.07063813202232
O          -2.20609506789587   -2.09665353428490   -1.45148442759134
H          -1.64161070071409   -2.42023651774261   -0.73082500736524
H          -3.09420719630812   -2.40744421925371   -1.26853326910097
O          -1.36992984003224   -0.39750347158265    1.79465774489291
H          -0.94197175984079   -1.78463825339165    1.21919231474002
H          -0.60859083410272    0.12565188396347    2.07366176751828
H          -1.71555943943732    0.05386213124994    0.98086243615099
N           1.30596200837691   -0.88537129396254   -0.16177664380717
H           2.23267227309354   -1.15630379488581   -0.47596297664951
H           0.89583778428369   -0.20892285468205   -0.88107229872433
H           0.67917577818711   -1.69534771980421    0.02693603881616
H           1.38468300952617   -0.28990066722729    0.70470866731579
