    26
        -50.45709970  Gyration_radius:  2.5777977104 Dipole_moment: 8.129
 S          -2.48953510262706    0.43897101161116    1.13320172214265
O          -1.41666981537417   -0.39179769396081    1.68162046906388
O          -3.80595230188384    0.08633913546390    1.55531099893141
O          -2.46385981383809    0.08913592795582   -0.46309599565593
O          -2.13982192098127    1.84723077975149    1.18794979132794
H          -0.98391551712247    2.03391298428895    0.23679419962922
H          -3.29564038234723   -0.36859576608914   -0.51450555875416
O          -0.21059573363571    2.15602838834296   -0.40422606453916
H          -0.35907486603407    3.01128095127002   -0.81030978168602
O           2.20563074791583   -1.44255547311636    0.77888927951833
H           2.71933668283848   -1.82652435541685    1.48973055624272
O          -0.38272069519609   -2.04745583344354   -0.03488717874936
H           0.52297751480097   -2.13724640113451    0.30593687104627
H          -0.86824264939049   -1.53270357407857    0.65571121484260
O           2.77946920943294   -0.38791829657247   -1.62570890109427
H           2.70256991646123   -0.89419723085020   -0.78898708631828
H           3.28735822036631    0.39809965659834   -1.41714509449197
O           0.99083371806352    0.67679151092459    1.66956121735752
H           0.84659169910215    1.38784404472144    1.03249548197292
H           0.09005420876324    0.31665545959250    1.83799899213356
H           1.78055857666136   -0.61748034125492    1.15600752413107
N           0.09625648517103   -0.15167334844408   -1.75849932157275
H           1.13077111275637   -0.21544393679268   -1.89475247785420
H          -0.19539699437390   -0.95951276606183   -1.09779457018468
H          -0.13038990624598    0.75242812091378   -1.27817344370249
H          -0.41059240327864   -0.22161294417554   -2.63312285373272
