    26
        -50.45709918  Gyration_radius:  2.57776574235 Dipole_moment: 8.136
 S          -1.12959778678650    0.97690646963568    2.33387422659464
O          -1.46331523400021    1.97413954342291    3.29797047822429
O           0.29950840657136    0.84186458640165    2.04815804217767
O          -1.74663675156329    1.54107564720610    0.92970383065612
O          -1.75588569279821   -0.32339170565481    2.49276965846004
H          -1.69700263063566   -0.99101940033202    1.14130776987331
H          -1.96920648292105    2.41803558095880    1.22198547811374
O           2.58957343213783   -0.41271329377324   -0.81878808625138
H           3.50299977464234   -0.57568907765254   -0.58263731223056
O          -1.65796899069416   -1.43496070160523    0.23287144841107
H          -2.48435338989236   -1.91417931327197    0.15639941835237
O           1.00813317324885   -1.09690640756388   -2.88151437605300
H           1.71580096367500   -0.82826352448265   -2.25750427250307
H           0.93749172009893   -2.05049136396081   -2.81123812128102
O           1.00762162720561    1.80327160986841   -0.26049013481178
H           0.77475238455829    1.57414566110869    0.67279505835555
H           1.77512508328206    1.24654598700996   -0.47394415538427
O           1.05210603944711   -1.45471576477550    1.00069680366336
H           2.03518286234281   -0.85400459759301   -0.11054340661537
H           0.83274734302001   -0.65800494009124    1.53607909653236
H           0.19476331504060   -1.78308044541818    0.70178430996720
N          -0.78382054666211    0.40084126821205   -1.53286829703781
H          -0.11108307623336    1.06680356502358   -1.00554957432680
H          -1.21496913824336   -0.24352628437237   -0.82676554644809
H          -1.50272009489528    0.93829822244793   -2.00306892280640
H          -0.20924629994005   -0.16098133072395   -2.20148339363148
