    26
        -50.46507289  Gyration_radius:  2.55354825432 Dipole_moment: 4.277
 S           0.84658013024875    0.45425732193351   -0.28327041234441
O           1.08689240635473    1.46076372189505   -1.31056585624102
O           1.23516445224649   -0.88288247011715   -0.70936136870824
O           1.68355831123337    0.83812487574174    0.96352398085719
O          -0.56597680746659    0.48210181110125    0.12062599087712
O           0.48471331557493   -2.15054660268030    3.05313751491888
H           0.57281090273039   -2.33384217394854    3.98961563883251
O          -2.44964331385762    1.91876288175668   -1.04335073115445
H          -1.83157366233881    1.36759729692771   -0.50873107395653
H          -2.44373060586436    2.78669578536321   -0.63694798865975
O           2.57239768045054   -1.46764177724965    1.51733586192860
H           1.88189425117718   -1.83813617529488    2.11333234197357
H           2.28697830089042   -1.69383762523787    0.61774704764274
H           2.13967227643130   -0.02128986718849    1.26605436143360
O          -0.48569803648218    0.33154418588346    2.76608105115690
H          -0.64241554223881    0.36506964679777    1.79933760531322
H           0.01598427271695   -1.28745009495699    2.98156783510687
H           0.27459138996483    0.90226657975328    2.90755717717219
O          -0.91227012346782   -1.45581807258383   -2.07710212435600
H          -0.94572752231294   -0.01601886239862   -2.79404795436111
H          -0.04594877237362   -1.38319235668269   -1.60829989521634
H          -1.56760893319303   -1.47160892981181   -1.37431838970734
N          -0.83739624918288    1.02791741508414   -2.95548817617721
H           0.04388515480630    1.29021787755168   -2.39593655460456
H          -1.62550170895115    1.50480054249020   -2.46141081997976
H          -0.77163154707967    1.27214505593879   -3.93708505171266
