    26
        -50.45709968  Gyration_radius:  2.57777352813 Dipole_moment: 8.127
 S          -2.58514056913626   -0.98394585660932   -0.15161802213475
O          -1.38680692749352   -1.73626742762753    0.22248682503940
O          -3.64863814681220   -1.76623028570760   -0.69240636033071
O          -2.07982568553295   -0.05999667604562   -1.40140793651089
O          -2.93863315163965   -0.01994952181238    0.87516279657886
H          -1.83136671026953    1.00435912017684    0.89409578504698
H          -2.58128472217810   -0.48018077935587   -2.09128331151633
O          -1.08824661353782    1.69109593493860    0.90194920818540
H          -1.52650940459910    2.52726362636011    1.06671230487284
O           2.41275045373431   -1.11874468344238    0.69384188471727
H           2.88955716335973   -1.79335360873609    1.17774088807526
O           0.61352690874516   -1.41058616822608   -1.40518021904426
H           1.36984287668930   -1.55011360933634   -0.81102735038629
H          -0.18221201132450   -1.65540327565047   -0.87181243917439
O           2.91222127976354    1.42678632087384   -0.00845200552889
H           2.94910021316982    1.89321934414976    0.82845069007004
H           2.90848407866378    0.47068055968575    0.21112747390920
O           0.21050437495712   -0.57156505225865    1.96314762803610
H           1.59060948015782   -0.91891741344629    1.23037089747288
H          -0.11136704154910    0.33598697555128    1.89280300766103
H          -0.43842672630014   -1.09921283273126    1.44355961198354
N           0.50860474504653    1.18644802810127   -1.20735184878957
H           0.27893775520847    1.67813637345778   -2.06307523080720
H           0.49243194605997    0.11705408217688   -1.38110258323756
H           1.46082044018729    1.43266893787323   -0.85298754524467
H          -0.19893401537476    1.40076788763024   -0.46374412897438
