    26
        -50.45756274  Gyration_radius:  2.7137654415 Dipole_moment: 4.221
 S           2.17853795909558    0.43916422793946   -1.74113107470864
O           2.71812219698878    1.54674492198647   -1.00755408436319
O           1.07172102628802    0.79533853145034   -2.62641624961371
O           1.78069216354802   -0.66544884766592   -0.85505034665619
O           3.31729239935294   -0.13790752743942   -2.68105970418848
H           2.85148377048518   -0.74084312421691   -3.25432193324001
H           1.43635200361055    0.21113601042116    0.42071684586671
O          -2.79961086491848   -0.27684729534005    2.10877565772940
H          -3.37150291725378   -0.96884832958301    2.44424073510296
O           1.14841602587850    0.87585860866482    1.10444681106036
H           1.86491869640100    1.51893000447398    1.08530325744083
O          -2.45651906011306   -0.27530574221815   -0.58571651194905
H          -1.82631935707398   -1.03533823264212   -0.59637074510530
H          -2.74772417132663   -0.20782352904607    0.34553506730452
O          -0.48007456428515   -2.01141666120064   -0.20749214424458
H          -0.38591591007828   -1.92874380013580    0.75126753588907
H           0.33865133042078   -1.63310716521034   -0.57557375044989
O          -0.17490347269184   -1.04515845921400    2.48754213932052
H          -1.88822317178847   -0.53804699836303    2.32930849073633
H           0.31645876655011   -0.29791416423947    2.09503138845774
H           0.35283303288990   -1.36709360233992    3.21968171681728
N          -0.65916886632326    1.57444656472167   -0.84866548296018
H          -1.47634519117829    0.85868575391875   -0.79224625036827
H          -1.00080453222696    2.52190940996893   -0.96704550183268
H          -0.08195083205206    1.48515347706044    0.01050040895851
H          -0.02641647018981    1.30247596825859   -1.66370626499181
