    26
        -50.45695462  Gyration_radius:  2.60706369065 Dipole_moment: 3.499
 S          -1.34801986661843    1.49673755651570    1.38100354496715
O          -0.69586890205679    0.33394158163365    1.93233533117422
O          -2.32157616340769    1.13755578719740    0.35089333904566
O          -0.42124951499586    2.51515180930993    0.90876597408002
O          -2.17511342794666    2.16736013467586    2.55741516518526
H          -2.54546133429007    2.93370927465252    2.13097445714462
H           0.82754007713675    2.06550017332046    0.07157800513380
O           1.62614873380074    1.76922188496554   -0.45143319103361
H           2.18504755841154    2.54352968894690   -0.53386984999425
O           0.51788021798795   -2.30435605563436    0.83944379687032
H           0.13713991972781   -2.54866333129045    1.68479809715286
O           0.41913584368803   -2.82264008427855   -2.02309489356850
H           0.90648398767803   -2.05742699085977   -2.34112935877286
H           0.68494525868805   -2.94831778352672   -1.10514505309823
O           0.64906061136599    0.17382781503928   -2.35545876090157
H           0.34731357116710    0.76294165851283   -3.04855766943667
H           1.09372682561510    0.73803447427315   -1.68483197534972
O           1.87715363735929   -0.17530526943608    1.52594219177816
H           2.05445887675601    0.43180032345703    0.79252964321076
H           1.01365132357728    0.11738951209278    1.88074727669864
H           1.16360776727319   -1.57759424830675    1.05550850923337
N          -1.21887461442741   -0.95401289083318   -0.71410737529896
H          -1.83988292574596   -1.62276719176217   -1.16131766311427
H          -1.74861970336883   -0.14929830724860   -0.25985294136038
H          -0.62466765877168   -1.45872627438497   -0.00331140180072
H          -0.56396009857252   -0.56759326695726   -1.42982519796132
