    26
        -50.46827145  Gyration_radius:  2.47331363788 Dipole_moment: 4.497
 S           0.57864195614715   -1.28840469499856   -0.98525478544172
O           0.26948973701441   -1.57825136384865   -2.36217981586275
O          -0.60659396223497   -1.45487052340313   -0.11503217837429
O           1.10488404882213    0.06840427674954   -0.80465353112434
O           1.65140666722073   -2.29584598855019   -0.51049034386320
H           1.95204384258631   -2.03643534165861    0.40591012794285
H           0.46037670887315    1.18784784775129   -2.48556159046581
O          -0.28199151945013    0.87023365535946   -3.01497112865305
H          -0.09661477271401   -0.09680142591238   -3.06548718520449
O          -1.59136598088206    2.57477140321533    0.59064111499076
H          -1.34722796698579    3.40690215617344    0.18181538665353
O          -0.15518934636735   -0.96527878227714    2.45847505636314
H          -0.46200411177038   -1.26748561908035    1.57865930559645
H          -0.02407069483621   -0.00998985610924    2.34973529010763
O           2.28984882725625   -1.73404399393525    1.94426489462628
H           2.48873487292787   -2.57032733110845    2.36942739307551
H           1.38930964866018   -1.45849751732552    2.27397366401366
O           0.69810468636159    1.41301141802241    1.35053689486349
H          -0.77431902136475    2.21552163474542    0.99705270337996
H           1.56199304393893    1.68716726077626    1.66201796313611
H           0.86940079252853    0.87888393951662    0.52358063631827
N          -2.02477601400648    0.49709406440505   -1.06856199063710
H          -1.53977343499382   -0.34607422156442   -0.62227051003394
H          -2.98158698726721    0.26747910885505   -1.31577806190410
H          -1.98616219399892    1.30737764170995   -0.40399944483889
H          -1.44255882524329    0.72761221246998   -1.93184985462766
