    26
        -50.46802611  Gyration_radius:  2.56452422021 Dipole_moment: 2.936
 S          -0.65059562996440   -2.02491553812430   -0.14280661995553
O          -0.74843392765210   -1.11834829086187   -1.28392066123833
O          -1.49878114589068   -1.63236420051365    0.95354884824254
O           0.73952033716419   -2.22993832344662    0.25182480100407
O          -1.18053510968967   -3.43095362587391   -0.64401994199393
H          -0.55426979791548   -3.70610148791412   -1.30784890831732
H           0.91216913485294   -0.95450319419976    1.27441686998338
O           0.74362144092736    3.12378018949292   -0.91168943004032
H           0.97071769729263    3.98211381759246   -0.55307590905284
O           0.86484364983095   -0.11817965381211    1.79463578473480
H           0.40914899697322   -0.35378267490811    2.60562064510605
O          -3.11779147904516    0.47385614956397    1.20854628727614
H          -2.61298910134982   -0.36664342865537    1.22576211214004
H          -3.98672697461595    0.25397991818850    0.87050309293004
O           1.98311065290245   -0.82615768010531   -1.66730297746348
H           1.14260835426088   -0.65532050568153   -2.10643481757892
H           1.74979258089169   -1.44384452348629   -0.95137717816470
O           2.51386170023386    1.32635579658435   -0.12476133492744
H           1.50757482115919    2.52576736379566   -0.70813068596203
H           2.23854079337972    0.93684118658526    0.71253224992839
H           2.48197500956574    0.58989123341113   -0.77239760277688
N          -0.79095059447968    1.15976367795247    0.04883580352697
H          -1.74655791193033    1.26051483980476    0.43392535739157
H          -0.39218767450301    2.02989676692455   -0.37116925173245
H          -0.16115452881645    0.82436969367771    0.81075360403039
H          -0.81651126357504    0.37392248404563   -0.64597012723654
