    26
        -50.45989261  Gyration_radius:  2.4505699531 Dipole_moment: 8.206
 S          -1.19835652548311    1.53487787799424   -1.42958602602709
O          -1.38802745061873    2.92269767883636   -1.66158247586415
O          -1.90790249429700    1.03597453099711   -0.22450347037868
O           0.21313942775550    1.13821363629093   -1.32966255001723
O          -1.79368562346273    0.71899898440236   -2.63429965595582
H          -1.68900189840790   -0.20330146237492   -2.39523094795247
H           1.20444838266418    1.44972423419365   -0.15580410775187
O          -0.02888943447947   -1.85303695977312    1.72123283635008
H           0.13472321147496   -2.56052152628491    2.34523120107181
O           1.74070288456361    1.58881469426004    0.67645710414625
H           2.19076350138916    2.42633161238725    0.55896962133814
O           1.05898574585142   -1.32516715279944   -1.91456135459174
H           0.87425720701879   -0.36723485182706   -1.89543722537697
H           0.20441456019239   -1.73020624275588   -1.70087679043360
O          -1.45109757639614   -1.50985012317307   -0.74927546716989
H          -1.10840853620408   -1.89080103677966    0.07070908272737
H          -1.75359674664033   -0.61511741122664   -0.49982816338953
O           2.15309327032026   -1.24466330842242    0.49772855704164
H           0.84816420546114   -1.68745263156845    1.24567044693111
H           1.89811852233882   -1.37619588085326   -0.45038420291834
H           2.27659160704192   -0.29106948604533    0.59415759605003
N          -0.49621434643993    0.77567842075771    1.90165730918683
H           0.43102968629498    1.18397396258740    1.64923258635831
H          -0.88742821767029    1.19762645279999    2.73620182897003
H          -1.13811057981560    0.94449961711530    1.04410746665185
H          -0.38771278250291   -0.26279363868621    1.99967681100848
