    26
        -50.46522050  Gyration_radius:  2.54083929631 Dipole_moment: 3.678
 S          -1.78470681711871    0.80037062938209   -0.75971166899057
O          -1.73664498902931    1.22133767259974    0.62691800884882
O          -1.65039276133656   -0.64157253373949   -0.92066860788875
O          -0.86046252875737    1.52603878289303   -1.61842262931209
O          -3.24306567211524    1.17493779280903   -1.26231031724876
H          -3.22374442854191    1.01136577234252   -2.20040700100029
H           0.35084813906983    2.23342133421379   -0.54539326926178
O           0.63986927776277    2.30060891346366    0.38520800235038
H          -0.20259781927063    2.12262072242777    0.84237564922439
O           0.65512746490425   -1.26947175417284    2.68259520629210
H           0.53537670070825   -0.98818236418970    3.59075951837838
O           0.25053770758728   -0.65891095464627   -2.72665958402098
H           0.18964485309723    0.30540140357058   -2.75611322222356
H          -0.48300401119768   -0.88785200868609   -2.11833303797239
O           2.27167385706068   -1.37544872010197   -1.23162267330196
H           1.56904333670393   -1.08913543673067   -1.87903378257170
H           2.11286951869146   -2.30833174541152   -1.07758966289925
O          -1.75917887359032   -1.19135949430335    1.69120587296951
H          -1.88574540061743   -0.22934693536880    1.58824112584451
H          -1.77317225690315   -1.48332614949942    0.76718938286537
H          -0.26584101931847   -1.33045365633222    2.30032455348442
N           2.07065549361189    0.15452814334435    0.93016385882292
H           1.53790512345461   -0.39470320118332    1.65630576076367
H           2.99260118775365    0.39621747635634    1.27834080123713
H           2.16574051389448   -0.44287197123561    0.06099624121537
H           1.52666339349407    1.04411829219770    0.69564145439658
