    26
        -50.45989258  Gyration_radius:  2.45049873546 Dipole_moment: 8.219
 S           0.24054235175951   -1.58272618698599    1.80985043612090
O           0.92473738335388   -1.77657559648887    3.03868769388543
O           1.10287842225368   -1.77898783782154    0.61708042209423
O          -0.41167632717134   -0.27085899918806    1.69498226125724
O          -0.90601581228107   -2.65022158935720    1.67833771511511
H          -1.28706119918420   -2.51182329800954    0.80974194757397
H           0.28028933636023    1.12201690556009    1.49803380961841
O           0.23153007799292    0.55765661291190   -2.45608665356222
H           0.23311870634556    0.91757683139615   -3.34327224156241
O           0.78340066837365    1.95264414204360    1.26038021043376
H           1.00986880666504    2.36726192356872    2.09380828233615
O          -0.89542009724874   -1.71084053338305   -1.10472788482143
H          -0.09334249365218   -1.83865378260263   -0.56179912356813
H          -0.62748010027643   -1.09102433491952   -1.79682113719322
O          -2.54807950326977    0.13179105213620    0.14621463149677
H          -2.31508309252984   -0.58752840437251   -0.46065888647840
H          -1.92293699046042    0.02355934936785    0.88760544937074
O          -1.10816045482929    2.10006973619629   -0.88994506593181
H          -1.79365963277152    1.48102877152689   -0.53185832839612
H          -0.53753109405972    2.30477754001633   -0.13731690584622
H          -0.34003180926237    1.17984143706239   -1.89992930667586
N           2.02696208300882    0.34627626474432   -0.48321504315890
H           3.02496389062986    0.34316615036502   -0.66079212238155
H           1.71606800208361   -0.57352622050778   -0.00017635863656
H           1.74194345840653    1.11758484427887    0.16011303889398
H           1.47017542124482    0.42751521319238   -1.36823684965859
