    26
        -50.45911100  Gyration_radius:  2.68891094071 Dipole_moment: 3.909
 S          -1.50460031289563    1.91269364488739   -0.00722735464626
O          -2.24076796417081    0.82260394738481   -0.64083391441090
O          -0.62979753290411    2.63497852803728   -0.89354129987889
O          -0.80156904813605    1.43572686164278    1.18373133776387
O          -2.61914478184433    2.92338330067687    0.49640501976801
H          -3.35429165099329    2.33683119313988    0.64196150653343
H           0.83407059463049    1.79126084683553    1.14800620938101
O           1.81686401347141    1.83856259852560    1.11900055730586
H           2.03233797048937    2.77207157649044    1.13893608580436
O           0.16560330038422   -2.51515462830542    0.87131446641917
H          -0.63040686324626   -2.90423651395689    1.23833789319070
O           0.36352019905561   -3.46138815636050   -1.86739192889758
H           0.97230820934737   -4.12568698605291   -2.19177369748912
H           0.49199802580992   -3.40603103808672   -0.91178874765613
O           1.46283521849626    1.11968138204380   -1.47543698272003
H           0.75743338639733    1.80024958468583   -1.48318381880016
H           1.88513359452166    1.24642358141810   -0.60508777556430
O           0.62003066064891   -0.47905304288187    2.44607942558709
H           1.45527923407468   -0.01644225024500    2.32002971201616
H          -0.05092966326133    0.15053005302674    2.12255481113531
H           0.44187559394204   -1.81765894351465    1.52489621285878
N          -0.29896801004764   -0.82027686508240   -1.24497788984662
H          -0.39264929848471   -1.44864813650812   -2.04282311127234
H          -1.16476706771136   -0.23574724494738   -1.08184418736839
H          -0.11878491450347   -1.41529914879242   -0.41019541494458
H           0.50738710693278   -0.13937414405823   -1.39514710426099
