    26
        -50.46581816  Gyration_radius:  2.48691506919 Dipole_moment: 3.906
 S          -0.56302253627347   -1.16316551300674   -1.50496537330436
O          -0.09584471556989   -1.98289957110641   -0.39484971418439
O           0.46283699583315   -0.33169213312915   -2.07890170118863
O          -1.75744083686872   -0.41330184107710   -1.11806779362121
O          -1.01505627868344   -2.17940060995044   -2.63348850570775
H          -1.48357202254709   -2.84986291478200   -2.14611713726958
H          -2.32888159398073   -0.27950402187660    0.49286966541822
O           0.38386729876469    2.21647104744172    0.46149827206485
H           0.06698491723242    2.99273527932467    0.92511426862840
O          -2.57844304878990   -0.18528225248833    1.43489793226458
H          -3.53202083539326   -0.09988596491572    1.44700441303038
O           2.42584295482949    0.38135280098527   -0.34517227415284
H           2.04992645509009    1.24306811680671   -0.13025423873845
H           1.83646347999423    0.01124231118592   -1.02812004108542
O           2.64668634754874   -0.85724121483205    2.02760653508882
H           2.74600450697367   -0.40192916753149    1.15970666032098
H           2.85963292219582   -1.77690951181624    1.86147216238800
O          -0.90060143862508    1.98768782029526   -1.80145373910295
H          -0.21161014382240    1.62894238857723   -2.37398728821620
H          -1.42578778140954    1.19413347620301   -1.57232099451531
H          -0.10636082569426    2.19406450790477   -0.40890804996818
N           0.09871184531634   -0.26020638280038    1.57295037217432
H          -0.76138496059809   -0.31054082010521    2.12308944541421
H           0.98343554123348   -0.48996018880633    2.07901282527657
H           0.01559431949533   -0.96556040431231    0.78654515995516
H           0.18403944382442    0.69764476381846    1.16483911900941
