    26
        -50.46485460  Gyration_radius:  2.49729421051 Dipole_moment: 3.687
 S          -1.42252035473497    0.51543210578779    1.29961013991565
O          -1.46534903815237    1.22890287712235    0.00967311457889
O          -0.63487998665866    1.21878192979463    2.26821406630186
O          -0.92106919946870   -0.85235946261747    1.06138492872568
O          -2.88863734528085    0.40027825860343    1.81334335451060
H          -3.34008606699533   -0.19392127712972    1.18046516983158
H           0.64852711111040   -0.60665716895426    1.43744827173919
O           1.56046438194308   -0.26711479468549    1.61519884932863
H           1.49364956985110    0.10694949002162    2.49854692652171
O           1.63781499210986    0.44357541175688   -2.30612305382755
H           0.75058709283916    0.02583312269343   -2.36573299850529
O          -3.25880282434133   -1.41510970395326   -0.09575437127599
H          -2.36849465278652   -1.53439191052691    0.28000959538029
H          -3.12927842474728   -1.13922532805287   -1.00828070412926
O          -0.77100435017039   -0.62940003340043   -1.75311433423362
H          -0.53627666990401   -1.27059736622037   -1.07371524544552
H          -1.13053756794005    0.12940782141436   -1.24734074991264
O           2.82298917588707   -1.34578400743986   -0.61599498655087
H           2.51478458006891   -1.03281752214052    0.24785345118564
H           2.21628157921030   -0.23709440083277   -1.91762571413151
H           2.82478851458955   -2.30297873479124   -0.57790486703462
N           1.09674313638352    1.78179110892648   -0.14705998767431
H           1.42222612706506    1.13803634882506    0.60723705924097
H           1.39487270733431    1.35794798529605   -1.10030227875598
H           0.04060966064308    1.75596757098906   -0.10361362384441
H           1.44259785205400    2.72454769952062   -0.00642203198584
