    26
        -50.45987114  Gyration_radius:  2.63457734332 Dipole_moment: 3.585
 S           1.10221797194918   -1.24605508738228   -0.70691350955198
O           1.66020869844493   -0.07375330127255   -0.02139709828074
O           0.67418116455167   -0.90331206093821   -2.03845649749398
O           0.01162388294357   -1.83808587638433    0.07981925486148
O           2.25835209839735   -2.29865530640647   -0.75511291014023
H           1.83287515640588   -3.18234881361189   -0.76295276917765
H          -1.17621975571310   -0.83776721955923   -0.34098032191517
O          -1.80809002437912   -0.17267653708668   -0.71954699594587
H          -2.17953796097272   -0.60261165383740   -1.49291401279042
O          -0.68463570296409    3.61342153227906    0.35390802544206
H          -1.40290202083759    4.22603821513686    0.19171199972430
O           0.62372827120199   -4.34905594307954   -0.35016273422985
H           0.13975740258663   -3.52748743208344   -0.12473521074370
H           0.78793660078810   -4.80160800619370    0.48024002347495
O           0.68236904739323    0.40111914764269    2.41165990813547
H           1.04815568831585    0.10416029201041    1.55321304636120
H           1.34443300968750    0.97957563387761    2.79424028457593
O          -1.63255807073555    1.52420078392530    1.61357460237680
H          -1.94603455608482    0.89783665691498    0.95074080850751
H          -0.85860654470849    1.08987438351442    2.03184123649035
H          -1.05448674858163    2.90397801113898    0.94942048375446
N           0.11778820129876    1.65166182036186   -1.23713115603219
H           0.88027981060204    1.10410299184023   -0.74511078225685
H          -0.71031581878910    1.00661954802649   -1.18087794247579
H          -0.09971243908877    2.54858415270476   -0.72768502505981
H           0.38919262830281    1.78224405851036   -2.20639270753869
