    26
        -50.45911096  Gyration_radius:  2.68915708785 Dipole_moment: 3.919
 S          -2.43339506926881   -0.02924590277195    0.06566495438682
O          -2.45789564130034   -1.40574879922511   -0.35513184200091
O          -2.07312138978955    0.91772909447727   -0.98563106724744
O          -1.59036069781189    0.16539056698955    1.24527031697542
O          -3.90926243294985    0.36952082873507    0.49002203341178
H          -3.91836579790164    1.29993822521153    0.29028130581434
H          -0.82861353812495   -1.24537960132527    1.72869902834873
O           2.07225400440005    1.66308443116394    0.24250245160882
H           1.88062981698430    2.60192024860308    0.28225613002133
O          -0.24235865086532   -1.99792586958783    1.97132281058599
H          -0.82642749085916   -2.69443036998868    2.27462906186458
O           0.02689501129608   -2.24623945674682   -0.71957203396374
H          -0.94665393997562   -2.13496272461650   -0.74542660738390
H           0.21801266448923   -2.31677908241513    0.23451321256933
O           2.86081634840145    1.09348828049768   -2.49386000468016
H           2.92320836127880    1.30793841470639   -1.55424043038677
H           3.75252533569748    0.92702340407254   -2.80084172915717
O           0.82136087786246    0.70485718236700    2.32797917831664
H           1.72263150263953    1.28778650721145    1.09507604953920
H          -0.09839934511160    0.70822424837720    2.00342343987853
H           0.99025824180756   -0.21852707955617    2.54333748295968
N           0.41405841097721    0.25387132426480   -1.44083540944687
H           0.39588723213168   -0.78510361738414   -1.20301220120380
H          -0.58300123655694    0.59913479818593   -1.37272823146108
H           1.00842317451086    0.76987571448606   -0.75985631624401
H           0.82089425803652    0.40455921426661   -2.36384159311309
