    26
        -50.45910752  Gyration_radius:  2.6900168218 Dipole_moment: 3.948
 S          -1.34474834630243   -0.90812861838306    1.81721509816596
O          -1.33086726229282   -2.21234635881646    1.20885507059384
O          -2.18683065271661    0.06910770049772    1.13389835803551
O           0.00587338574572   -0.37734905602969    2.00692357454113
O          -1.97612776152376   -1.06335918574330    3.26398874685465
H          -2.29426563752649   -0.18192491045224    3.42960694964539
H           1.17988821220912   -1.39411478981205    1.38185186262641
O           0.95131496045320    2.31038311379603   -0.94008011198513
H           0.62739340531915    3.11593726173970   -0.53275269449018
O           1.89830278211569   -1.87194078541682    0.90798602090261
H           1.97464581362411   -2.72251598114876    1.34267741210958
O           0.03898362172855   -2.11040834911070   -1.05625628831599
H           0.90512448854082   -2.06759541069919   -0.60912657566075
H          -0.57329885452893   -2.36162613498023   -0.33341135160186
O          -0.57240796057529    1.95773240935472   -3.38883931446374
H          -0.25714476245211    2.11618355239843   -4.27907102068901
H           0.13826718831955    2.21807179404653   -2.78899175924186
O           2.08709758159516    1.04566170225717    1.04619958049352
H           2.59234984036657    0.25728776686632    0.82113276178282
H           1.50470571684105    1.86779184331522   -0.24182423473769
H           1.30630260983133    0.70013170009283    1.51791001263522
N          -0.94452879277051    0.32802122583518   -1.15044047377900
H          -0.50197659032086   -0.63588138046792   -1.25558223195845
H          -1.46836798774828    0.57683824551992   -1.98929968300811
H          -1.55205928911460    0.29146809145511   -0.28549280378440
H          -0.20762574862073    1.05257455401423   -1.02707690432531
