    26
        -50.46557663  Gyration_radius:  2.53311542558 Dipole_moment: 3.021
 S          -2.22068063345180    0.22028635074316    0.00011006573551
O          -2.33060886252067   -0.08578574404528   -1.40316859105247
O          -1.20442902280658    1.25499967366528    0.23336845988807
O          -2.01712001230247   -0.93722302559395    0.85105207974768
O          -3.59476160708366    0.84313136714215    0.48909291637541
H          -3.79100755410133    0.28023223125609    1.23099967092766
H          -0.71036381106173   -1.77953733725571    0.44655101119268
O           2.96898605391941    0.96058211359565   -0.27414052898334
H           3.28703856732910    1.67810859873337    0.27519538675773
O           0.08786160604808   -2.27864312487921    0.13462792654672
H          -0.03095544935962   -3.18075305878444    0.43680041361344
O          -0.15531819976762   -1.24440317098076   -2.38053566710287
H           0.07129835857521   -1.79953502045250   -1.61311123757834
H          -1.07412797396810   -0.94994575365174   -2.20938938524052
O           0.13263695417590    0.90905708456088    2.49859040399166
H           0.12409412063740    1.76791772725829    2.92271663622964
H          -0.41806780935214    0.99260502785572    1.69271556574887
O           2.00558644367706   -0.76302609445981    1.42108891843683
H           2.69806223203931    0.23464103957444    0.35927699443889
H           1.40099730803175   -0.21540424374269    1.95360022403345
H           1.42678411461881   -1.38466152793788    0.94695882122413
N           0.68078557048291    1.11570126877356   -1.61378380646006
H           0.47600116667312    0.15268341691016   -2.03636439361579
H           0.63648775405641    1.83145712607230   -2.33063865707665
H          -0.07344753082467    1.27006119946522   -0.89414939952037
H           1.62426821633986    1.10745384617639   -1.13746380826069
