    26
        -50.46172513  Gyration_radius:  2.64869060716 Dipole_moment: 3.698
 S           2.33913066315155    0.63221458614932   -0.03265578557398
O           1.35470692567023    0.19062986930125    0.96611964201332
O           1.87718629858316    1.79039344531846   -0.75051816284400
O           2.75392753785919   -0.47671518730216   -0.87534689484696
O           3.62863277178509    1.05701235671127    0.78236911024404
H           4.02500602123304    0.21238832232286    0.97065423704460
H           1.49465251719177   -0.94489605574566   -1.72252278206838
O           0.65842302641393   -1.22829342092120   -2.18141052597519
H           0.94116185077814   -1.71209438282662   -2.95946591181345
O          -2.34681424472857   -1.29285441099727    0.86691695321673
H          -2.93052570130573   -1.79273193736174    0.29500862922147
O          -0.29972779982487    1.35614024216675   -2.19816439485435
H          -0.10859084985055    0.42279069348661   -2.39838181148538
H           0.55214088064060    1.71008819034265   -1.87004951537105
O          -2.72760313027965    1.03462819554486    2.53199101999082
H          -2.73058962721898    0.97288876281467    3.48766057179518
H          -2.76163392417618    0.12888717582438    2.19685501311628
O           0.08598425693156   -2.11242262007102    0.39849847996643
H          -1.44774796181353   -1.72126561844025    0.79275220709693
H           0.63975588992609   -1.38813907509529    0.74959427245978
H           0.18858751125081   -2.04142186134149   -0.56402449498295
N          -1.05180373565919    1.05909168303649    0.30207694225717
H          -0.92519917523567    1.30227495907236   -0.72471675356435
H          -0.09294670257124    0.81400180009293    0.66831141732089
H          -1.46097287510561    1.80816783783513    0.85707211265301
H          -1.65514041364265    0.21923644008506    0.41137642497192
