    26
        -50.46159119  Gyration_radius:  2.49914412426 Dipole_moment: 3.830
 S          -0.41176955723779   -0.60726697772513    1.44268417457489
O          -1.31029062879128    0.16988467207107    0.55588486139268
O          -0.67830763392747   -0.32636996352776    2.83170755279318
O           0.97643736998391   -0.33242132490331    1.07623429448414
O          -0.69411164200926   -2.10548822893099    1.17159375011703
H          -0.18608936220677   -2.33136063517860    0.34293175117615
H           1.38921939824757    0.42449156537339   -0.26025684536437
O          -1.29084713109643   -2.00556626285277   -2.81147890647081
H          -2.18050362372666   -2.19439931277512   -2.50751875597187
O           1.58146120303918    1.04878387268705   -1.01368606542332
H           2.43623955609134    0.78760514370446   -1.35765013012422
O           0.93282661968279    1.71236234638295    2.99831122850258
H           0.27281956048424    0.98460187255945    3.12629551234353
H           1.74178999895775    1.24142084905589    2.77611332506649
O           0.52759363062128   -2.71171191718844   -1.03182354629831
H          -0.11344713287578   -2.47669937372181   -1.75219503918219
H           0.66564630102033   -3.65890529601087   -1.08926616533441
O          -0.94039996857436    0.50626504645917   -2.07162349524291
H          -1.17312499683877   -1.02900455672616   -2.69918387896236
H          -1.22867755703545    0.34459050601997   -1.15143973400501
H           0.00539011496444    0.70316390576257   -1.99336076673125
N          -0.06636054909018    2.41613014562189    0.67352765915540
H          -0.72325817130902    1.56180691228654    0.59999450314206
H          -0.56308601150731    3.29388049909062    0.56545970832843
H           0.38281767032132    2.30483512109073    1.63753301315749
H           0.64803255290314    2.27937138113298   -0.05878799505471
