    26
        -50.46161850  Gyration_radius:  2.73575336859 Dipole_moment: 3.835
 S          -1.40453716481577    1.97259144523899    0.72719781295142
O          -1.64536175288530    1.64592419355020   -0.67664471991824
O          -0.00064573937653    1.92852611942860    1.07010090151647
O          -2.22997892663735    1.16030008868818    1.60910669382987
O          -1.87688314645658    3.47269475400846    0.92151362055965
H          -2.79555390856007    3.42556704701573    0.67627030889676
H          -1.95396596592723   -0.40381213624877    1.58601020104707
O           1.96249947121312    0.24405381975355    0.29188745951744
H           1.58141664297840    1.13434101594665    0.37416909388395
O          -1.70051209275545   -1.36471698362118    1.50902275578685
H          -2.45118511801466   -1.86236649354276    1.83544911062331
O           0.53647970707262   -1.77001996820469   -3.04173601877006
H           0.40601853874534   -1.33857343512467   -3.88744542000268
H           1.45131138318242   -1.55444780703714   -2.76199605994851
O           2.90310801117972   -0.95737953085185   -2.01190209189673
H           3.60768691735235   -1.55659106777720   -1.76109223059755
H           2.69027462225193   -0.43780608379247   -1.21741136142441
O           0.69698861897650   -0.27813037524538    2.56375716270761
H          -0.05796087613457   -0.86527796040298    2.42471845260549
H           1.80962984235605   -0.13086732736593    1.18815590242130
H           0.36980405954740    0.61015258021290    2.34150376316271
N          -0.38732076037830   -0.63382728778826   -0.76568769943034
H          -0.25236591495247   -1.13848358184617   -1.66631414028821
H          -0.88568195647903   -1.19856598225706   -0.05962758229432
H           0.55463268391280   -0.37411249702458   -0.38820740704543
H          -0.92789715541528    0.27082745429069   -0.88079851788335
