    26
        -50.46159119  Gyration_radius:  2.49912056291 Dipole_moment: 3.830
 S          -0.79629746762079    0.66574796082510   -1.24201905273345
O          -1.95284435836011    1.41759734106819   -1.66208842198375
O          -1.19104492789763   -0.58190794987452   -0.54543826525779
O           0.08485235784682    1.44141596951065   -0.37089380365615
O           0.01154313015366    0.24767418668738   -2.49519587185988
H           0.93508815526166    0.05456421930911   -2.17036419418046
H           0.73639052720554    0.85137334856052    0.95461111543140
O           0.97410880257346    0.49243488029438    1.85401868641147
H           1.82068056232907    0.88173179508899    2.07522990345506
O           2.05252688318787   -2.89152271177333   -1.00861229625182
H           1.45233905127123   -3.34198562860908   -1.60559416277884
O          -2.21775140176693    2.74982856710277    0.55921933116694
H          -2.28694720368491    2.33889802479834   -0.33972129535894
H          -1.36015776353935    3.18553479614117    0.53842212768209
O           2.39528240170241   -0.36139016895608   -1.68176146635249
H           2.33881077356798   -1.31675500238167   -1.41856175536323
H           3.01945020401487   -0.31621647780657   -2.40834439416417
O           0.45253270589904   -2.08707621764881    0.93353966791514
H          -0.19138591212119   -1.67730896692992    0.32245422606327
H           1.52712491679878   -2.71134903650711   -0.18907580465269
H           0.84686407636790   -1.33583045969812    1.40210900677133
N          -1.74937013823590    0.45142844806421    1.74086414559099
H          -2.02028127145991    1.43333186177629    1.41543833495144
H          -0.81320155442291    0.47684750365636    2.17477339469754
H          -2.44254820801330    0.02900066070320    2.34906762784975
H          -1.62576436114299   -0.09606696352920    0.81792321642913
