    26
        -50.46507304  Gyration_radius:  2.55400892244 Dipole_moment: 4.279
 S          -0.71124618866714    0.61970891222396   -0.32879967402203
O          -1.39348149824333    0.02300855307638   -1.58608935803633
O          -1.71085589244014    1.39325391233440    0.39827074545614
O          -0.26077373166151   -0.51093409786437    0.49452550409606
O           0.42048032667642    1.43055183282060   -0.75570759181315
O           1.76773383116609   -1.76514179998103   -2.82186485705260
H           1.88328407465366   -2.43167312504722   -3.50062046674488
O          -0.92626727375699   -0.91165952494022    3.01708938507106
H          -1.75375951709367   -1.39509285275210    3.02431612398083
H          -0.63728902677195   -0.88792944165894    2.07500529249471
O          -0.20870078755251   -2.55534577428353   -1.19263280654469
H          -0.16284384856601   -1.87652971289901   -0.48742710969916
H          -1.01251525737904   -2.34695536504216   -1.67660369709036
H           1.12579311577797   -2.13639419812833   -2.17388049233475
O           1.73633428879871    1.41535021508676    1.49788863312653
H           1.95793380854258    0.48257010507551    1.56441980629049
H           1.35654069975293    1.51721888000111    0.59181509057093
H           0.41646062533866    1.70511058437349    2.37084785294638
O           0.44157824897354    0.52271876722798   -3.25811635303336
H           1.01313112588101   -0.27743788916508   -3.20984354512023
H          -0.75554659367403    0.20379055633923   -2.35979132281351
H           0.77722218904431    1.12245495142504   -2.57286090946090
N          -0.59598574483503    1.70240707520694    2.69112664146411
H          -0.82135351717721    2.48204546652116    3.29845613994338
H          -0.78452691789526    0.77042482792010    3.12530091517547
H          -1.16134654884514    1.70447915204943    1.77517606318612
