    26
        -50.46159117  Gyration_radius:  2.49909933025 Dipole_moment: 3.832
 S          -0.43270071793717    1.39996665433738   -0.68754923805407
O          -0.37936133457645    2.22406968867032   -1.86964572137528
O           0.92830931259289    1.07377917850982   -0.19872989773725
O          -1.17180203428531    0.15821925594123   -0.90822012988616
O          -1.14154542540799    2.18839985480092    0.44106342592954
H          -1.46335807938474    1.50211802348530    1.09008514028230
H          -0.66725936615639   -1.25771064225729   -0.38832794990341
O           0.27941243569899    0.24094992317483    3.66850847280468
H           0.72833013288664    1.08318351986502    3.76146828220588
O          -0.22491587322824   -2.13045389977978   -0.19616540731560
H          -0.93286127096255   -2.74375837663108    0.00345446134120
O          -1.90718183467271    0.44929634415009    2.20295968216028
H          -2.61077250586749    0.80916552207017    2.74607299314275
H          -1.12381876714327    0.32968937967812    2.80059688839406
O          -0.25418020223801    0.24668317112074   -3.55917590106960
H          -1.09411315016053   -0.16062788143358   -3.32613312773426
H          -0.28097155928793    1.11438216844342   -3.08163774828136
O           1.48982894641729   -0.83985176936819    1.58369739967291
H           0.80420438214923   -0.26783824318598    3.00077770514387
H           0.91630255610243   -1.50294150544362    1.17042240260903
H           1.37929288471371   -0.04535720474625    1.02466749067385
N           1.46483857239411   -0.80163353925633   -1.87256390767053
H           1.02926652922894   -1.61042307928599   -1.40191098928061
H           1.40025880625023    0.01324502523487   -1.16643980542786
H           2.42045599705264   -0.99119917387758   -2.15491114985616
H           0.84434157551312   -0.48135237437441   -2.68236336056671
