    26
        -50.46172558  Gyration_radius:  2.65002541577 Dipole_moment: 3.709
 S          -1.58887474641342    1.69415529224966    0.70031684062284
O          -1.32255633558324    0.27810336193695    0.99214170958682
O          -1.77001918650527    1.91549332480388   -0.70977736261093
O          -0.59125826170708    2.54751918241226    1.32381870368696
O          -2.95681120071379    2.03977022701143    1.41945040670545
H          -2.67392173545615    2.17006288754709    2.31868554034594
H           0.80882689018383    2.24417476076655    0.63732023974489
O           1.66468103148855    1.97038324053946    0.20994953134842
H           2.26635563998677    2.70535601938575    0.34103424232338
O           1.60165941365729   -2.30923108465079    0.16947699635361
H           2.53886376243466   -2.32771665711710   -0.02771909272194
O          -0.67339904096091   -3.68705212616051   -0.95311766319146
H          -1.12691208600487   -4.38472993213606   -0.47924633607664
H           0.13725705108865   -3.50090899815974   -0.46113569815621
O           0.38391287413258    1.38923879569691   -2.16090381572155
H          -0.45875842379645    1.76890090579917   -1.83759515843922
H           1.03342562358639    1.63573847003197   -1.47895216476853
O           1.18945722598165   -0.28944413096534    1.76978831049916
H           1.59944283690077    0.46714484865226    1.32106334776405
H           1.48244449549653   -1.63745793791738    0.89862037397387
H           0.23039798562624   -0.12442908164927    1.68372766984739
N          -0.35992831451584   -0.92227196912130   -1.15653187321665
H           0.45949444723658   -1.45152684749242   -0.79634088780811
H          -0.86688512677721   -0.51335677049346   -0.32617431006158
H          -0.04601535247809   -0.09773980763844   -1.74893010376874
H          -0.96087946689685   -1.58017595332465   -1.64896944625727
