    26
        -50.46172548  Gyration_radius:  2.64882863179 Dipole_moment: 3.694
 S          -2.09346996557237   -0.56067313479998    1.08443090095473
O          -2.68094015273705   -0.26327788105247   -0.19485995027089
O          -0.93405018229138    0.30133485739122    1.35688266211367
O          -1.75622172141605   -1.95990558210437    1.28530602559761
O          -3.16666073361666   -0.21515118671737    2.19642618196368
H          -2.83695827946771   -0.70636245026706    2.94201210058947
H          -0.67938819267157   -2.36546191336797    0.19024018250284
O           2.68778149114929    0.80625199094816   -0.23651916605135
H           3.35327728661094    0.32762486393753   -0.73216894448729
O           0.03333987087570   -2.54304161143408   -0.48103428212869
H           0.04294645124916   -3.49400793112121   -0.60331603200785
O          -1.07511995134321   -0.74081821176904   -2.24823499162532
H          -0.59832835760286   -1.48416115382622   -1.83860319898007
H          -1.86818467180513   -0.62570676615324   -1.68566187725932
O           1.61887307799687    3.48078622628545   -0.43437941691852
H           1.81645189245482    4.15039818519105    0.22114050700984
H           2.21388190050470    2.73958135271673   -0.25991525120590
O           1.45957007481599   -0.92405946911281    1.28259831528236
H           2.33623443977640    0.16926366550745    0.44751186141668
H           1.18436381980849   -1.63100028753967    0.67721109053185
H           0.62510474705301   -0.47078523330233    1.51211932675167
N           0.06088287328993    1.21728449974421   -0.91394437851946
H          -0.36050859373212    0.55070022960626   -1.62632197103859
H          -0.07761560105574    2.20126597207487   -1.13563505413218
H          -0.38887039023002    0.98365558787828    0.01172593115610
H           1.08360886798964    1.05626540128952   -0.81701058125415
