    26
        -50.47157566  Gyration_radius:  2.48789274969 Dipole_moment: 5.327
 S           1.37733941894286   -0.73554457708999   -0.39485148964066
O           0.33915893290171   -1.21251679374290   -1.30284758959864
O           1.03551171303091   -0.95179393922811    1.00180027535169
O           1.68629290157080    0.67005428315141   -0.66210655627377
O           2.67696291127569   -1.56417888467335   -0.65891340394322
H           2.85403862334372   -1.42825988915644   -1.60885154093009
H           1.51332231482242    1.81180140078820    1.11415102726718
O          -2.80918354192377   -0.46903612457085    1.73400789844535
H          -2.85459820585064   -0.72587297858668    2.65640668133610
O           0.98740891233185    1.51590606274317    1.86819163604424
H           1.04986187699172    0.53791912850348    1.79091256369349
O          -0.71403315524161    1.30027990197887   -1.48175827943531
H          -0.90737475739755    0.38976434998094   -1.73889694957505
H           0.24304274425246    1.25568079512671   -1.25329138640326
O           2.24652805575127   -0.64419372327053   -3.11304556718778
H           1.37252848517405   -0.93168119228781   -2.80177816836441
H           2.33003117731572    0.27286075317118   -2.83281588132734
O          -1.23059515477156   -2.27365403116571    0.67662060575174
H          -1.10274201289063   -2.22792473852068   -0.27904811423868
H          -0.37867743690341   -1.93554295404930    1.01533017482925
H          -2.29669530626458   -1.19444240022654    1.28311134327777
N          -1.50152230755884    1.72606526803386    1.00839278355205
H          -0.53988180085554    1.71618549612722    1.46755492579540
H          -1.32301492095989    1.61583873113974   -0.03202795042561
H          -2.05876632152289    0.89146349905702    1.34204853836387
H          -1.99494315557484    2.59082253677022    1.20170441363143
