    26
        -50.46507301  Gyration_radius:  2.55381107259 Dipole_moment: 4.277
 S           0.79651546182062    0.32914816455745    0.50765007407611
O           1.49314618595238    1.46735503509341   -0.28069984581128
O          -0.63180594741545    0.38012889637341    0.16637642219772
O           1.37931287927972   -0.94164673469914    0.10030926643494
O           0.97477148570941    0.59587597457908    1.93006982639128
O           0.55853206817696    0.05794123382615   -3.72529092792899
H           0.60769901729365    0.45405713781140   -4.59652137432974
O          -2.60140553126304    0.61450130571846    1.90795261326631
H          -1.95521524592686    0.55972691775279    1.16561979834598
H          -2.73294183733870    1.54966341462070    2.07121570655894
O          -0.70615826548034    1.76633548131902   -2.09227483868074
H          -0.03752939601501    2.41931248130626   -1.86789842651233
H          -0.01294911335515    0.64876893177440   -3.18299209332255
H          -0.80235226666798    1.22388945812241   -1.28188981768050
O           2.63596886569859    0.03893816336087   -2.03202406771623
H           1.96207224298537   -0.02169408874056   -2.74720720188026
H           2.03655032446607    1.00725171918976   -1.00951476248335
H           2.44056006956138   -0.69584786398768   -1.42887515369404
O          -0.58217477539687   -2.48883849054522    0.85459317920155
H          -0.75009837789197   -1.73378041727675    2.26508265528591
H          -1.27550515456375   -2.19564016064224    0.25717153530403
H           0.23475586915652   -2.04021452724666    0.52751263096406
N          -0.76478211864516   -0.96393707774950    2.99636535597555
H          -0.66518822192978   -1.31435351688746    3.94228792300528
H          -1.63842490481743   -0.40912807580838    2.84950504037185
H           0.03664668663205   -0.30781337182531    2.70347645263949
