    26
        -50.46652397  Gyration_radius:  2.52916165685 Dipole_moment: 7.719
 S          -0.51192110236064    0.52022179947285   -1.51419996631922
O          -0.32882640473245    1.55450137257828   -0.50640053489788
O          -1.70336260654500   -0.27381438552101   -1.30652617766001
O           0.68703828134368   -0.32830994713564   -1.60151676699778
O          -0.63372930640467    1.26420392326606   -2.88261355559285
H          -0.77201498757226    0.51561867127848   -3.49562863472045
H           0.90192583649358    1.91535607530703    0.50927651670675
O           1.66871551171272    1.99966368781982    1.12751784457778
H           2.19071173525550    2.73228437731354    0.79694756447671
O           0.36915456185873   -2.02664568505203    2.16054259128142
H           0.29075493246232   -1.85584062975478    3.10061700674971
O          -0.88181608615498   -1.23923508774311   -3.66817523802821
H          -1.53456535432670   -1.25303900608645   -2.95154369523804
H          -0.03705035255162   -1.39280144080245   -3.22766363414275
O          -1.41800401835388    1.50245055411450    1.96392691742457
H          -0.64927662324818    1.83127757599485    2.43531505409511
H          -1.21143083929100    1.61885567661048    1.01885558871409
O          -1.86729245127213   -1.10195193601229    1.24732840167916
H          -1.90879520007267   -0.22363067395150    1.66617661012424
H          -1.89645588226152   -0.91554966591612    0.28986473947608
H          -0.52183656766725   -1.77837620318727    1.76977249544993
N           1.97966297175443   -0.62083709372259    0.62535125208007
H           2.04416860885034    0.36058479983593    0.97268597989477
H           1.46703021121162   -0.56079844921247   -0.31437425052970
H           2.89550583055021   -1.03823364294687    0.50116128978487
H           1.38170928055510   -1.20595466633538    1.28330261200308
