    26
        -50.46507283  Gyration_radius:  2.55337906642 Dipole_moment: 4.275
 S           0.52036181310785   -0.48807465559798    0.70400568801904
O          -0.48765697198938   -1.52086882647266    0.50989688130207
O           0.73798009298188   -0.17609700250813    2.11162031966093
O           1.86294485397865   -0.99138143118431    0.11533866882139
O           0.16054023564627    0.73459457282260   -0.02736657820485
O           0.45665178900555   -1.50798246664087   -3.41938511915769
H           0.90265151905759   -1.67109196413999   -4.25175008126498
O          -0.31723972801524    3.08154708684390    1.08172311447511
H          -0.12865729720320    2.27108763331548    0.55328583694632
H           0.52306214832416    3.53234323863470    1.17737831027648
O           0.95588461543666   -2.94674827943233   -1.21400501148576
H           0.74015482301675   -2.54530683847974   -2.08672405375289
H           1.63375014607632   -1.82582578787296   -0.42257118000482
H           0.16027960651969   -2.82934923833459   -0.67076178894238
O           1.60518760511068    0.61091941314195   -2.24655003338177
H           2.41209130660952    0.26049956544634   -1.85936515372455
H           0.81562632040788   -0.65880310850996   -3.07324159691700
H           1.00741403365464    0.75356859978969   -1.48325915563817
O          -2.59754238558293    0.00043315240371    0.72033124598873
H          -2.01858541132272    0.77471643471100    2.00612650097856
H          -2.48955607447052    0.55674798201312   -0.05587041532252
H          -1.90429271674818   -0.69671203870911    0.62558532088509
N          -1.33660030619144    1.22586479211674    2.68360831752862
H          -0.45287318906377    0.61561810051820    2.61217434138383
H          -1.69985754274867    1.28931562057810    3.62779211780007
H          -1.06171927559420    2.15098545553325    2.28198348374387
