    26
        -50.44296669  Gyration_radius:  2.77482541328 Dipole_moment: 5.091
 S          -3.00315030258550   -0.27738662323583    0.75033199963921
O          -2.74257842611973   -1.64621887169020    0.44914261735835
O          -2.72845121557266    0.66865990019562   -0.29745093352275
O          -2.31856593136316    0.16522918341692    2.03618615748981
O          -4.51991500261027   -0.13071182904642    1.13339776147647
H          -4.67955562496325    0.80931249783140    1.16141843390790
H          -1.25583906060397   -0.03805438603062    2.01058613998462
O           1.15503872946492    1.74229152948965    0.43946291222670
H           1.36274731119593    2.61422801828035    0.77557666130072
O          -0.14488419641747   -1.79301242991217   -0.28715955572822
H          -1.05833779223061   -2.06578838189180   -0.10961745429562
O           1.94926762103671   -1.07280843598091   -2.22370735672615
H           1.23532405785076   -0.45470204113228   -2.42364592389172
H           1.53996371553541   -1.77243814980919   -1.70271337125944
O           0.09997993546474   -0.28412685361067    1.84026668665386
H           0.48023786219879    0.52314150581800    1.42526209504126
H           0.13189836514379   -0.97943073158066    1.12738217866590
O          -0.35610457045277    0.55840494107165   -1.57272315846879
H          -1.28585471452600    0.68422862209824   -1.31357715486318
H           0.15257247943760    1.12948356228133   -0.97340884514673
H          -0.22698904426079   -1.00195498481012   -0.86751756410145
N           3.35260370855770    0.49694116507359   -0.28440919918715
H           3.72329687118629   -0.11432333995087    0.43246752220916
H           4.12273298728499    1.03035927287262   -0.66740884235027
H           2.98507039845256   -0.09735634283842   -1.03447348294158
H           2.02949183932612    1.30603319310206    0.17633167624294
