    26
        -50.46704895  Gyration_radius:  2.49805281146 Dipole_moment: 2.976
 S           1.30100514094372    1.10018626090830   -0.77600759713212
O           0.89564316248494    2.18967538794911    0.09832791937883
O           0.56223541557655    1.05226248068357   -2.01205744043294
O           1.19601554992748   -0.18877615912956   -0.04987623573377
O           2.80748973773435    1.28743883925813   -1.13504355668796
H           3.26631737938674    1.17182115065429   -0.28121517329358
H           0.18516568249355   -1.13188773740737   -0.97826746008027
O          -0.57223231580889   -0.72394242755300    1.96862384756265
H           0.18854459559354   -0.64204256377475    1.36605328556227
O          -0.47758227125634   -1.64370119559538   -1.49586543506980
H          -0.16065340420307   -1.61389118699194   -2.40073324614379
O           3.42489699782750    0.35573143036329    1.26796456301804
H           4.00118525504116   -0.40768170033724    1.34753925301030
H           2.54543222572795    0.01947789492100    1.01132987442720
O          -2.01178893840865    0.63649674942549   -1.51386262987007
H          -1.82882666021738   -0.31823337986297   -1.49891600093630
H          -1.17644517479447    0.99925335262879   -1.87568941901492
O          -1.83690052911992   -2.73032391336271    0.62115565258315
H          -2.75776188226760   -2.78778078900031    0.36251962703845
H          -1.33023401425458   -2.54576276644486   -0.18666945270413
H          -1.05672844911345   -1.51476820504628    1.66419174451065
N          -1.46525870395280    1.50489431048022    0.92033901807181
H          -0.51612353224672    1.92165143872932    0.66989562418096
H          -1.25140095128327    0.63445346268436    1.49427914411419
H          -2.04733490457150    2.16939547347936    1.41711226786379
H          -1.88465941128960    1.20605380232062   -0.00512820420617
