    26
        -50.46652381  Gyration_radius:  2.52917527543 Dipole_moment: 7.730
 S           1.30101373206612    1.04654061622984   -0.19511096165898
O           1.67093495407054    0.25485728644016   -1.34827495929079
O           1.27373038834213    0.28014122128397    1.04213695313547
O           0.01340324456311    1.72661591967046   -0.40564037546154
O           2.37000202703523    2.16682815429210    0.01144210877648
H           2.34494172844478    2.61752687309660   -0.85552296572847
H           0.11875736604197    0.03434591237100    2.17462119480317
O          -0.66785432124553   -0.10725113453804    2.75639092961134
H          -0.52665400085406    0.44763693384005    3.52489356655351
O          -2.26259751196289   -1.68357679187801   -0.97855983133903
H          -2.52318183143245   -2.53161448100666   -0.61531630325173
O           1.58422005802396    2.69583006726629   -2.44748171654258
H           0.69116525635510    2.75382255464845   -2.08675516252472
H           1.74317821236569    1.74461587290359   -2.54878859506461
O           0.98277435606039   -2.40097291725888    1.18055418460712
H           1.29806084985162   -1.48138028488751    1.11587614167245
H           0.38657955935954   -2.41393287663348    1.93261101684630
O           0.25932167315481   -2.03310715822255   -1.43437608275133
H           0.79043454678239   -1.22244401018417   -1.54853203921002
H           0.56833204206637   -2.40799456345864   -0.59026911261780
H          -1.30869773588984   -1.80056318463558   -1.26962637467999
N          -2.04988108273017    0.46585564856663    0.52538528904425
H          -2.19985296386608   -0.40831540303838   -0.06287009562412
H          -2.88797306039851    1.03644851236480    0.54539248065024
H          -1.73405235533355    0.20580555173574    1.48484190026577
H          -1.23610514088605    1.01428167105814    0.09297880975087
