    26
        -50.46652371  Gyration_radius:  2.52920748224 Dipole_moment: 7.716
 S           0.98724783371862   -1.04985425466823   -0.86266431545765
O           1.92682693734765   -0.95668529917758    0.23352948158740
O           0.70762571401571    0.23377469634946   -1.48946968420561
O          -0.26440763348029   -1.69735256176031   -0.43946245909697
O           1.60270931390886   -1.95286017339803   -1.97910625411737
H           1.77843509492946   -2.77683548975463   -1.48356058853919
H          -0.67834588441632    1.05257830156864   -1.78306892680720
O          -1.56149989676266    1.49249131300451   -1.84397009456010
H          -1.84250311438272    1.38757890817353   -2.75417187686000
O          -1.27989552014180    1.05262862329246    2.48281110759895
H          -1.43577572860821    1.97835279748018    2.67721534418686
O           1.64095082354669   -3.61604484542014    0.06458213970210
H           0.69374740543813   -3.44749395576750    0.13920842854780
H           2.05727960609533   -2.85380057956988    0.49547667265223
O           1.05202371827372    2.63260047485049   -0.30006119703237
H           0.25268430048756    3.04593455748783   -0.63374677728437
H           1.13221199277943    1.79270078952882   -0.78728158361586
O           1.24288386398955    1.03022348357298    1.91243888000237
H           1.31295815202928    1.76618609131815    1.27853986921899
H          -0.28734001569661    0.97121390512512    2.35415276230325
H           1.56448304510172    0.25272516780283    1.41806867272247
N          -2.14959646052910   -0.06505773121998    0.26442837440482
H          -1.39530533022607   -0.78555749914748    0.01571979581531
H          -2.14456859975482    0.62697647778140   -0.51588730612499
H          -3.05156709734454   -0.51841170863170    0.36096976216975
H          -1.86126252871723    0.40398851257885    1.17530980405452
