    26
        -50.46704906  Gyration_radius:  2.49830111927 Dipole_moment: 2.986
 S          -1.73876671461046    0.28293298750733   -0.63420668737582
O          -1.19187105688627    0.50374499905834   -1.94877863828620
O          -1.82899576775085    1.49445401481663    0.16572995340264
O          -0.95391881293055   -0.74124538373325    0.09703527057895
O          -3.17429364270126   -0.30045962762804   -0.81344860016900
H          -3.43458857391678   -0.55970293817295    0.09101613641822
H           0.29332967678355   -1.14949278183518   -0.92729469709685
O           1.03640785530108   -0.21103826553019    1.89894904752811
H           0.27704151607921   -0.54828403955335    1.39082249129292
O           1.06824179736787   -1.31806848223979   -1.51069223872431
H           0.69164501666089   -1.51201005996354   -2.37133027573199
O           1.29606949514629    1.40943214073197   -1.75746382491178
H           0.35907822227577    1.29984677625493   -2.02270943177401
H           1.60043801329102    0.48769916049381   -1.70224338665652
O          -3.02913554334282   -1.23809555143371    1.66093851407074
H          -3.15330340970222   -2.17632962689570    1.82075970252776
H          -2.12609625345467   -1.12944210044692    1.30713812046633
O           2.97643423016611   -1.46799465449925    0.45081494804142
H           1.81072609767327   -0.69549514939729    1.55467397496668
H           2.36979637174532   -1.60572979571130   -0.29511770352614
H           3.78389629924886   -1.10262712829525    0.08663287134780
N           0.63522343313391    2.08801454295753    0.70834719613830
H           1.05511187714329    1.95862486433086   -0.25534189153196
H          -0.41610352480210    1.97950109912906    0.56672228623089
H           0.92585132155033    1.26687747082984    1.31996668753304
H           0.86778206660164    2.98488749936667    1.11908015544183
