    26
        -50.46287233  Gyration_radius:  2.64541610343 Dipole_moment: 3.036
 S          -2.29960376399069   -0.33617260517641    0.39842216019767
O          -1.88714023211445    0.88870804298566   -0.26814581089668
O          -1.62353389326462   -0.54486811015568    1.66935126357028
O          -2.21748248438240   -1.50044414243868   -0.46957970607320
O          -3.83784807706701   -0.12769005274142    0.73322558563236
H          -4.10354106315481   -0.94584417264072    1.14202356552484
H          -0.75180458808937   -2.34436062554564    0.05253421666564
O           1.71838857511894    1.79647832928069    0.46871156965682
H           1.66521066424433    2.58978274522709   -0.06797773871448
O           0.05368271388746   -2.28647321002488    0.60187853624671
H          -0.27597658045967   -1.76610297281481    1.35416202435905
O          -0.86458560457695   -0.17561085055467   -2.44231141888362
H          -1.36531631338848   -0.99042381973366   -2.30846170721366
H          -1.27827371400840    0.42856216815266   -1.78968199046308
O           3.93008306925394    0.19390718149219   -0.47309169877147
H           4.80371952905834    0.14691576464276   -0.08380466847758
H           3.42624242819235    0.83570043210355    0.04498924639564
O          -0.53876020253720    1.89588973668416    1.75973298898558
H          -1.10063130932611    1.84253198049067    0.96285748225252
H          -0.75394452698870    1.05887609991625    2.19864121962460
H           0.92691243308006    1.84485918341459    1.07883756238197
N           1.28736346245584   -0.50731149266201   -0.92654474209844
H           0.93454575989078   -1.27191823788427   -0.28143513054920
H           1.37683173107711    0.38241963815884   -0.38564229217918
H           2.21598423578158   -0.72805378154005   -1.28595124863239
H           0.55947777131110   -0.37935723864135   -1.68273927852818
