    26
        -50.44296655  Gyration_radius:  2.77464733593 Dipole_moment: 5.090
 S           0.51008204063025    0.60611620766867   -3.00489010913311
O          -0.76314338755569   -0.02106463300612   -3.13809105491942
O           1.53765087869659   -0.16878607737843   -2.36311287203871
O           0.40717303906137    1.97344303659562   -2.34309304586938
O           1.03074443781508    0.98695171509135   -4.43761904074680
H           1.93979891407160    1.24699302966647   -4.31146020421903
H          -0.10652236249825    1.91567573228924   -1.39234373443382
O           1.14362184746832    0.87745316588702    1.57589968753455
H           1.80579381471200    1.42178872438153    2.00205775473589
O          -1.54011054077820   -0.72755641730305   -0.64633178019105
H          -1.54713749608339   -0.63891102771155   -1.61194321499736
O          -1.08443463147314   -2.38578438935916    1.74006713414424
H          -0.24548281433453   -2.43866964815338    1.26564977760347
H          -1.72115707084261   -2.06252253618569    1.09312589690933
O          -0.71776902108710    1.71209023694917   -0.16225435105217
H          -1.20348792785092    0.84920582198254   -0.27296528701054
H           0.00317765986251    1.51767453543147    0.47872171670639
O           0.98930673856461   -1.39156223428850   -0.02402563045001
H           1.21777687842308   -0.66027715288547    0.57358741879836
H          -0.65150172552892   -1.09444287884578   -0.43391959398434
H           1.33605757322859   -1.12525084873936   -0.89363249650385
N          -0.52569073752215   -0.09185813134429    3.35838250575208
H          -0.18800072881856   -0.31562209410910    4.28585727527881
H           0.52840023624821    0.53058557952671    2.30079846818238
H          -0.78481692134130   -0.97290578684559    2.90287449905369
H          -1.37032868313701    0.45723606086959    3.45866025084971
