    26
        -50.45620430  Gyration_radius:  2.77437050854 Dipole_moment: 2.694
 S          -0.75072484656104   -1.34454098855288   -2.39346061834882
O           0.10736653338823   -2.27589445660538   -1.66690719779309
O           0.01843036793030   -0.39256243233404   -3.17362488057160
O          -1.72878825776493   -0.71247512322618   -1.52242641631790
O          -1.58675183807382   -2.21260137396188   -3.42829482513723
H          -0.93776382197042   -2.47541869223866   -4.07501795483453
H          -1.90273606601010   -0.69408005005458    0.11422847314159
O           2.33592557400551   -0.15085466230795    2.37529427965354
H           2.65056613261498   -0.60525579740907    3.15672170132540
O          -1.79263539935379   -0.71243122762101    1.09688157509701
H          -2.32366798857703   -1.44822030849226    1.40443153331559
O           0.50373270217614    2.99171342341002    0.88713647363209
H           1.40106149658581    3.32779844641084    0.87785901957265
H           0.34256250703796    2.60229465797567    0.01354311486168
O          -0.00691314087386    1.41718398779440   -1.33301212217678
H           0.15634632081873    0.90878476865346   -2.16459286046290
H          -0.94878707066833    1.26311581547855   -1.18641164700438
O          -0.05393159077044    1.02723653481145    2.70791744909732
H           0.06492757259396    1.83068841337419    2.16697689214946
H          -0.83215743232660    0.58340273939259    2.35122290925414
H           1.51822225624242    0.33030931673171    2.63947553266905
N           0.78771636363804   -0.66002730272051    0.23907285004595
H           0.70064142498109    0.23809385111134   -0.28390601823013
H           0.73734741949615   -1.43217738339151   -0.48111927544829
H           1.61334758526314   -0.65647895151466    0.86446497617009
H          -0.07333680384122   -0.74760321469480    0.81354704633282
