    26
        -50.45555343  Gyration_radius:  2.61968550925 Dipole_moment: 4.925
 S           1.88232381579723    0.48769898583367   -1.73640135616991
O           2.98850501236445    0.70813780294343   -0.85190179300627
O           1.01178991131932    1.66115064790421   -1.87071016258664
O           1.08522940666834   -0.68309930469373   -1.35844966294062
O           2.44949067325568    0.19407980762312   -3.18512239420817
H           1.67443751716429    0.09810496670998   -3.73334366873368
H           1.35746607434915   -0.74643651777149    0.25934012005296
O          -1.97011831784628    1.04164820013212    1.01701644532909
H          -2.77460314079507    1.33091363578187    1.44776026391807
O           1.58889435800743   -0.47211374854677    1.18189243764394
H           2.54608163854605   -0.37596592982763    1.14991501468244
O          -1.59468715040423   -0.68868168157345   -1.27607676858510
H          -1.78694112383174    0.05013620918554   -0.68388136426907
H          -0.62558221394097   -0.69255449483824   -1.39964566035186
O          -1.88658770657909   -2.73718042430106    0.41326389813675
H          -2.76878427657717   -3.09630269177879    0.31535588320200
H          -1.77395767770819   -2.07541115038646   -0.31107021988006
O          -0.98614879842288   -1.01078533757913    2.24597220241544
H          -0.03446275894556   -0.98468688236623    2.07998354904860
H          -1.64300120117876    0.23781388320452    1.53053236666674
H          -1.31917215465713   -1.75715556618450    1.70011976282937
N           0.51491002024932    1.92957542631200    0.63425065160774
H           1.01140386979594    1.06922047510134    0.98815473923400
H          -0.50892007697088    1.79458346907698    0.80230337875181
H           0.86886199795487    2.77311122154691    1.07187253900161
H           0.69357225239207    1.94419900849316   -0.43113020179140
