    26
        -50.45555342  Gyration_radius:  2.61970879306 Dipole_moment: 4.925
 S          -2.35491906133637   -0.96244298405941   -0.56988509448451
O          -2.17381607549141    0.06837117193394   -1.59821962152343
O          -3.09692879699552   -0.49828522505252    0.56523794385195
O          -1.05482754537961   -1.52868025063911   -0.19821722713027
O          -3.17124582169882   -2.13096786037392   -1.25895611426781
H          -2.65309808850207   -2.36918757898833   -2.02398695970123
H          -0.73592527992259   -0.71271362583514    1.19036895228265
O           1.53449765567633    1.79349119581873   -0.65570145345799
H           2.22471971476970    2.42621064015763   -0.85487164977858
O          -0.75266427603196   -0.01404097801344    1.89137858038215
H          -1.61030761825347   -0.14128173895815    2.30941665039467
O           1.23052387791380   -0.96654207648365   -1.48242472548512
H           1.26298625676500   -0.00190813249736   -1.43860770817102
H           0.37640567032080   -1.22781505775794   -1.08658195886324
O           2.90682008953186   -1.58750594423590    0.50235085157309
H           3.77359948969398   -1.75918844262882    0.13349612269068
H           2.29231568492300   -1.49198451541129   -0.26480649043308
O           1.99095508850407    0.66016342258681    1.62422207046669
H           2.41891823837881   -0.18230149250307    1.35392396560737
H           1.77271215941694    1.37921258809216    0.23225618729949
H           1.12505615886919    0.40203600401722    1.96703360447273
N          -1.06534173652063    1.80323698245410   -0.06341416370549
H          -1.56503117623481    1.17473644796582   -0.78615984581452
H          -0.99670245440136    1.22019160027270    0.81255107630625
H          -0.09080413057692    1.98948432389457   -0.39560607891872
H          -1.58789802342762    2.65771152625297    0.09520309640509
