    26
        -50.46422996  Gyration_radius:  2.54947092758 Dipole_moment: 2.207
 S           2.43309329530230    0.42220189705088   -0.33035461828814
O           2.31672679714167    0.00298258345371   -1.72240487256781
O           2.51116025440741   -0.66794013146419    0.60725683685296
O           1.37155998754384    1.37218968307239    0.01468792935479
O           3.79800805125151    1.22244952250704   -0.23657646195712
H           3.82047264008901    1.69030345985599   -1.06573891271057
H           0.51081165735592    1.02609077127536    1.34555787309977
O          -0.04704669693817    0.70746946248613    2.10063020295512
H           0.48507820462545    0.82688937947765    2.88825474763019
O          -1.02534958900722    1.72316205445163   -1.26513209651846
H          -0.17921366223710    1.90749814083672   -0.82250668843507
O           0.09263645124375   -1.66198509875000    0.84299078924657
H          -0.12726024921249   -0.90863356984057    1.42978146677463
H           1.06726437174037   -1.57531057110986    0.77149762156027
O          -2.59575514723897   -1.81612241004480    0.23485266557967
H          -1.70246727099624   -2.04188254407678    0.53461113762586
H          -3.20554846253437   -2.35586499272654    0.73929361020286
O          -2.51179807110427    0.93625412702571    0.79469256786044
H          -2.67835314239875    0.00724468193284    0.56391437204244
H          -1.79048200331779    0.93254052532249    1.43996096555826
H          -1.68828257850834    1.60703314824792   -0.54252143996760
N          -0.18844496072902   -0.69667247217435   -1.68464531212363
H          -0.23414754136441   -1.16141159063924   -0.74850185615601
H           0.83540867997308   -0.49067330801587   -1.86416169134891
H          -0.60083774937541   -1.27818763386564   -2.40577788597021
H          -0.66723325566457    0.27037491557071   -1.61966095033549
