    26
        -50.46422975  Gyration_radius:  2.54955612326 Dipole_moment: 2.201
 S          -2.27400560120828   -0.98151543882267   -0.26978361138303
O          -1.53827699982785   -1.85512477810026   -1.14680540190459
O          -2.73105060387546    0.25051625490655   -0.90247259085959
O          -1.53637600894871   -0.68799902230549    0.96225730826314
O          -3.58846370681259   -1.75137597792292    0.16766385902159
H          -4.15761976348971   -1.04234042063847    0.45093812597234
H          -0.07618610946811   -1.38065729634422    1.10063258792178
O          -0.32259125617460    1.66907363505635    1.65383426905489
H          -0.85152651932446    0.85439733221162    1.70108617370190
O           0.84728527684489   -1.74094567950312    1.08004687539304
H           0.76236061532913   -2.68678946594959    1.20623923430730
O           0.85531837598677   -0.81673466830339   -1.44183320853392
H           1.08669091827484   -1.17729530223113   -0.56045529345097
H           0.00031133841365   -1.26456429831144   -1.61719291164012
O           2.79694213087792    1.10142532656170   -1.03119771402919
H           3.70844543129171    0.97085988090519   -1.29530788943429
H           2.28425978883888    0.37272919154374   -1.41199471946018
O           2.14166147856528    0.67030343454503    1.66668795331224
H           0.60764741512097    1.39826134233128    1.84508340777637
H           1.87226193504492   -0.25720062736867    1.60529686786323
H           2.45472853644734    0.92406639763540    0.78251729903010
N          -0.45608019554107    1.51168824977661   -0.93253200063918
H           0.18517392785507    0.72491750413712   -1.18570719322109
H          -0.29360224016709    2.32334306961022   -1.51824892951796
H          -1.44149155090622    1.13322545218894   -1.02650242947027
H          -0.33581661314783    1.73773590438945    0.11774995194005
