    26
        -50.46507281  Gyration_radius:  2.55349456026 Dipole_moment: 4.277
 S           0.59405522367107   -0.38134044613026    0.71126281392463
O          -0.30850040021419   -1.52144904187189    0.63343188911695
O           0.83142993388735    0.05173258881397    2.08320381855714
O           1.95824418182287   -0.78848583221736    0.09842843051847
O           0.08243954108774    0.74294039419245   -0.08463783816785
O           0.48185415837898   -1.69798521686761   -3.32606694136138
H           0.91114986008492   -1.87525156976679   -4.16428290340289
O          -0.59490955294185    3.10395735803485    0.88172183157552
H           0.19668558818353    3.64362784200750    0.90687812095598
H          -0.34333250624862    2.28029881919683    0.40216747774124
O          -2.55451792019430   -0.20786689742422    0.83537524372980
H          -2.53421956078565    0.29903488807895    0.01913393833596
H          -1.79717285891701   -0.83698532447583    0.75692087113125
H          -2.01033359452959    0.71115516561247    2.03846692526708
O           1.44763583954705    0.60524413454297   -2.35281169342873
H           0.76358403775096   -0.79419967581397   -3.05485359678780
H           0.86746558233609    0.74166151902216   -1.57493900499023
H           2.30063717441742    0.36720890760248   -1.97930571770990
O           1.20872014813831   -2.91626931065235   -1.05230944762003
H           0.42617372544110   -2.84027500933748   -0.48333124958927
H           0.92020816825877   -2.60261685457763   -1.93985632948026
H           1.79642819019720   -1.67854716478578   -0.37033738459659
N          -1.35323942486286    1.27630011265780    2.65202461583728
H          -0.41446094539918    0.75435016426233    2.58197051289280
H          -1.68448405415790    1.37083803603225    3.60533243992908
H          -1.19154056510563    2.19292244406583    2.17641320789246
