    26
        -50.45276098  Gyration_radius:  2.54811322933 Dipole_moment: 4.941
 S          -2.29874084941606   -0.00316986885221   -1.42180871283262
O          -2.00413603346552    0.56431286342539   -0.11672938576816
O          -2.18719863639941   -1.44402677581787   -1.46762652714954
O          -1.50219754928765    0.63570824082186   -2.47418516933837
O          -3.80662760669333    0.35712510461319   -1.72843376085508
H          -3.99225627961719   -0.15092222025146   -2.51231742399592
H          -0.10713012023327    0.61236196692130   -2.08120735644823
O           1.31843017433229    0.82392390752658    2.31588179789023
H           1.83656960547669    1.16164822637301    3.04666630143425
O           0.21650318535771   -1.66812613865611   -0.44975913804147
H          -0.63680604149128   -1.81571908585593   -0.91731595387793
O           0.78600137512723    0.52149268626684   -1.53891756992862
H           0.64828293235748    1.25577076350104   -0.79403336225024
H           0.65249526079395   -0.41640907011544   -1.06544395632276
O           0.11647597888321    2.11367340747607    0.27336073673823
H           0.50107550305108    1.78450023035670    1.11028294714515
H          -0.79514924386837    1.75468566158006    0.22386620298421
O          -0.81637718745193   -0.89659851035911    1.82794367605364
H          -0.08114798023167   -1.50197286405577    0.48739287721277
H          -0.19558762620598   -0.26270180753057    2.21696048413624
H          -1.44774047436897   -0.37948838923846    1.29600096514592
N           2.84285396675566   -0.66586622607248    0.68916843899562
H           1.92570398222530    0.26602632666844    1.75257294753408
H           3.15822057761367   -0.13357878880161   -0.11309172891382
H           3.64928462565461   -1.12345081585420    1.09548101527492
H           2.21919845111892   -1.38919881414346    0.34529165521365
