    26
        -50.45152948  Gyration_radius:  2.67348919396 Dipole_moment: 6.431
 S          -1.75299516910559    0.70903390293240    1.32625214576292
O          -1.69374266306135    1.87441268678682    0.45217544668882
O          -1.05793568492127    0.88655769144156    2.57060802006559
O          -1.22973764892258   -0.48480986639271    0.60563984634322
O          -3.27167166460189    0.43261667707216    1.58309732828529
H          -3.30105285363098   -0.46455514267646    1.96709330582401
H           0.36369321896875   -0.32952445585188    1.14831568923830
O           1.24014873958348    0.03070090070382    1.41083025413520
H           1.05147941993239    0.39961124877241    2.28152934418251
O           0.02019114591825   -0.69310671417681   -1.78205207272050
H          -0.63638810731708   -0.75279220100516   -1.06296001306126
O          -2.73221618533605   -2.14385338147982    2.01272327314093
H          -2.01566957400743   -1.74249989102876    1.48304724527598
H          -3.19003011047544   -2.75817833124836    1.43458130483838
O           2.43099407816392    0.66722714994109   -2.72923006778874
H           3.01075209470270    0.57149936392153   -3.48617941456007
H           1.63482663132507    0.15727943287730   -2.92314053548679
O           2.38511726518497   -1.40556909202501   -0.70206026003876
H           2.83150990388261   -0.68454115469035   -1.16271032136334
H           2.21304557954556   -1.09205701172480    0.19662210262079
H           0.79006828090535   -1.20639840576162   -1.45131901589848
N           0.60647136238973    1.64198492739004   -0.65100352367283
H           0.42551892608844    0.82663412265662   -1.30093978008463
H           1.14054642419415    1.25223951942650    0.15305694519662
H           1.09459817876208    2.39724698582159   -1.11982912457453
H          -0.35752155816662    1.91084103814973   -0.25414814239596
