    26
        -50.45276095  Gyration_radius:  2.54811936136 Dipole_moment: 4.938
 S          -2.66194198394248    0.28111221619484   -0.37473352211195
O          -2.48510018035775    1.68599411987395   -0.08204271265632
O          -1.92860694961843   -0.59878403686607    0.51956272636895
O          -2.36928063043667   -0.02069989995819   -1.77952037543645
O          -4.19240260217202   -0.04991471032995   -0.16121791212461
H          -4.63041901363220    0.64044269875126   -0.64965273082570
H          -0.93190307812949   -0.04295350511161   -1.96110465511462
O           0.13410352883001    1.73533841676980   -0.04604182155951
H          -0.82178559167562    1.96464640255248   -0.09359113156604
O           2.04725914254126   -1.35015038286570    1.32940091060127
H           2.78262202776615   -1.84625333220165    1.68959851931160
O           0.10461148072844   -0.06081019331108   -1.80040774753729
H           0.21511002872736   -0.97125051890745   -1.27964864864417
H           0.22171219483471    0.71146708492262   -1.08510440815949
O           0.07737024968954   -2.10413946390617   -0.35351105066910
H          -0.75938887716741   -1.78475756431925    0.04650927084085
H           0.77215997793423   -1.99206035981442    0.32572497920286
O           0.00166219253599    0.34397241313805    2.16681270181803
H           0.68235465881654   -0.34278257115845    2.10721991400515
H           0.20667169356731    1.31417452828020    0.85495326875461
H          -0.81636645449969   -0.04044932965786    1.80352001377041
N           2.92648712362070    0.58087473968192   -0.31018633754692
H           2.26666876916698    1.34217870804740   -0.18586524455766
H           2.42753922590265   -0.63768059426712    0.74200089786845
H           2.87622880570260    0.29406050507954   -1.28055684818871
H           3.85463427123886    0.94842461947407   -0.14211803576447
