    26
        -50.46953084  Gyration_radius:  2.48440151467 Dipole_moment: 4.472
 S          -1.00613572930603    0.99245374717764    1.21254612612488
O          -0.11557760969683    0.71941827848214    2.30962629149766
O          -1.69166641388025   -0.21932732894218    0.73518452874023
O          -0.31569819028782    1.62637764042057    0.08481745297708
O          -2.09818444865374    1.98796617600257    1.70285242399994
H          -2.66767178992962    2.06847880581506    0.91178707679256
H           1.35308847874925    1.46742779235603    0.10770161544481
O           2.31267069267741    1.26220571337911    0.03331476499619
H           2.76571662173155    1.96779031917111    0.49753236297721
O           0.46834544660586   -2.19600259016761   -2.13636751387834
H           1.28760977553848   -2.44131052169383   -2.56875058988655
O          -3.05833246109842    1.54522624313568   -0.71941223807191
H          -2.74458629662840    0.67811444087132   -0.40905686685837
H          -2.36349738136505    1.88879939110212   -1.28804783679548
O           1.92502648003537   -0.84728818255787    1.69445669065699
H           2.29987586252904   -0.22621471478126    1.03925988152107
H           1.26358657697948   -0.29859412031569    2.16724855084272
O           0.47988083964952    0.45305771761873   -2.17078255078589
H           1.40025320535221    0.71404127249661   -2.06611415900521
H           0.37777626330922   -1.21709879403327   -2.24561446940424
H           0.03460458556245    0.85202640608618   -1.39592326497945
N           0.01926565870152   -2.18446603206088    0.50062401191883
H          -0.74482012129880   -1.45451664784052    0.60612786213867
H           0.88184806164796   -1.76712534295513    0.98082815518740
H          -0.26452875862580   -3.05321116158317    0.93987244418028
H           0.20115065170002   -2.31822851717563   -0.52371075029555
