    26
        -50.45152948  Gyration_radius:  2.67339673022 Dipole_moment: 6.431
 S           0.82226230182463    2.14800962065376    0.21167125895854
O           0.02543800548120    2.12979132410904    1.43242785368834
O           0.15912085857551    2.77096419391554   -0.89977614257151
O           1.23158310739831    0.75983797623775   -0.14021676608454
O           2.14016449340292    2.91577184143019    0.56172741523055
H           2.74684455765089    2.72108315716134   -0.17803883340776
H          -0.07736944892445    0.44775628234603   -1.16273964248141
O          -0.97818596534514    0.39632776457715   -1.55363453086384
H          -1.09711373623276    1.28866562115780   -1.89918132055518
O           0.47692941022173   -1.61703811018438    0.90213285781580
H           0.99525303257643   -0.83033521512553    0.64883648396409
O          -2.21250674724503   -2.72200469766613    1.22367951709270
H          -1.27413891577212   -2.74177233467664    1.44847733296002
H          -2.56999026454850   -3.57978391872718    1.45749946459067
O           3.42699856118612    1.58600651126411   -1.35915567527311
H           4.18773137519010    1.08018021084711   -1.06502867345066
H           2.63439634854383    1.08358650644213   -1.08639562612518
O          -0.84896164677563   -2.38969633313900   -1.31398026352129
H          -0.94399678722366   -1.51464334231919   -1.71506994470769
H           0.23147072118665   -2.03233863248542    0.04610021279230
H          -1.65135379051901   -2.54401632242441   -0.80050747121146
N          -1.52688216839386    0.12468795461431    1.06825536940277
H          -2.38303808469719   -0.03748277771018    1.58718765529361
H          -0.84018784019791   -0.67237566988386    1.18284594979305
H          -1.68600155002385    0.21848465978675    0.04376413959308
H          -0.98846585726141    1.01033370980698    1.35911939912094
