    26
        -50.44372285  Gyration_radius:  2.64411816928 Dipole_moment: 4.729
 S          -2.94648199731337   -0.26333742178651   -0.08484436877155
O          -4.25647381317558   -0.37201396322244    0.44910270112900
O          -1.88028659717854    0.14648492735961    0.77802554515681
O          -2.99472354947883    0.85832266480111   -1.23101921720714
O          -2.56648086729980   -1.51947666010465   -0.84299499517947
H          -1.52892609968722   -1.44805779866901   -1.12698396668818
H          -3.85524656276710    0.77080143732879   -1.63256032366991
O           1.11762177367117    1.91832217753712    1.20515672595300
H           0.72532887425241    2.65969987420637    1.66783539968024
O           1.57004186832189   -1.87060648539202    0.47700875065754
H           2.11209389824960   -2.65987404956771    0.46814256756062
O          -0.19371303787612   -1.24282384920451   -1.45292213820859
H          -0.08730926934317   -0.25303584650385   -1.42181759557398
H           0.36443270204274   -1.58842434460326   -0.72245346925996
O          -0.12071621301448    1.36543247882144   -1.16147023513128
H          -1.06482837868486    1.44347618330044   -0.99221183322946
H           0.32555629684374    1.58656277311591   -0.31554559005755
O           0.27544567534333   -0.28658517480780    2.36595875025333
H          -0.60596315553589   -0.19419724667709    1.97068355068039
H           0.71502044146256   -0.98314645721439    1.85357715657481
H           0.85314466690568    1.10756735811220    1.71926505759839
N           2.89756149053442    0.23290407103104   -0.44646058223272
H           3.90681452427569    0.30102545633588   -0.47807799888036
H           2.14545444322686   -1.10944622133284    0.16322594571316
H           2.55316108062965    0.96841841465730    0.16462714000910
H           2.53947179557592    0.43200770246661   -1.37324695689484
