    26
        -50.44372273  Gyration_radius:  2.64391378814 Dipole_moment: 4.725
 S          -2.95032909009720   -0.21701090187269   -0.06308016095995
O          -1.86884996213547    0.13334801297026    0.80692695260119
O          -4.28041176711435    0.03359122043431    0.36252647283020
O          -2.80991588771660   -1.80222341266703   -0.26684231432773
O          -2.71587709192308    0.33488245202917   -1.45504219880267
H          -1.66938228849880    0.23317362197951   -1.69234423641169
H          -3.66046171385355   -2.09124881047290   -0.58684468464279
O           1.29105161544293    1.94130818568257   -0.87036565507793
H           1.72414569195308    2.61551579352981   -1.39446042563800
O           1.32085090919243   -0.59940407601147    2.06798695972262
H           1.01421647241457   -0.93632882488733    2.91059951551261
O           0.10186235734857   -1.79251224228192   -0.06056188800439
H           0.54431970454548   -1.38368090025019    0.71452416073873
H          -0.82862491139118   -1.86672860852732    0.17333171940857
O          -0.30830133366911    0.03890843539200   -1.89672769447500
H          -0.07212868159014   -0.69544562179713   -1.26675593733914
H           0.17423338716358    0.82908717137821   -1.56925267873599
O           0.15508146098954    1.72334268308633    1.66263528821027
H          -0.69243002071491    1.29656855291101    1.45954045869971
H           0.93408354656924    0.31443559917285    1.98479073123903
H           0.51532685719173    2.00013538987284    0.80557874938234
N           2.91531356764001   -0.09601704199774   -0.36943348122271
H           3.92516460622374   -0.04348966639007   -0.41017507168152
H           2.65213509519041   -0.32942635364899    0.58411979989405
H           1.97231666521761    1.22853043136269   -0.67849205353520
H           2.61661082161699   -0.86931109899498   -0.95218233737900
