    26
        -50.47060400  Gyration_radius:  2.42510079072 Dipole_moment: 4.755
 S          -1.15735846662223    0.97237708251379    1.37137682358653
O           0.01654048529197    1.81977979362116    1.51428034310542
O          -0.96978507441636   -0.36751131421817    1.86729188993017
O          -1.66770780954903    0.98016639845113   -0.00083510041905
O          -2.26974913068611    1.67198865455501    2.25657428003014
H          -1.77827458418445    2.40335571896989    2.61393726748011
H          -1.67118928732962   -0.26884535754679   -1.02620064657328
O          -1.57380736044920   -0.96707172342288   -1.72342851127525
H          -2.39086840653156   -0.95455753184698   -2.22374774187816
O           1.81008546533325   -0.07023306670940    2.04258875920674
H           1.25732771712953    0.71416947819547    1.86325329840638
O           2.05323593799479   -1.52861809806755   -0.17177435739160
H           2.15480830093117   -0.96440542308913    0.63009432995734
H           1.25987178496703   -2.08310762197146    0.02923145957142
O           0.34169270475962    2.24403122949003   -1.12061149663580
H           0.75930103646100    2.45950727090509   -0.27687224864505
H          -0.53691144133714    1.91158735342539   -0.83655294247958
O          -0.36355141816299   -2.49052709174363    0.32834553839592
H          -0.62492654009833   -1.82509130944673    0.99355738789947
H          -0.88842932339584   -2.27656061760925   -0.45327256404783
H           1.22125356617448   -0.66455796823003    2.51782682040641
N           1.01433416261453   -0.13934346774997   -2.06626315671144
H           1.51551027352552   -0.18193622443672   -2.94625237840858
H           0.06628610197871   -0.54882813604203   -2.15443120229327
H           1.53826233156614   -0.70726885102323   -1.28193314321808
H           0.88404898405607    0.86150082301239   -1.74618271801125
