    26
        -50.47044577  Gyration_radius:  2.42972604052 Dipole_moment: 3.786
 S          -1.19812507640234    1.14410771453787    1.44818880393244
O          -1.62894203930244   -0.16490913397301    0.97483441369906
O          -1.79546129899905    2.23590042520310    0.73253120370981
O           0.26211335564600    1.21114993754843    1.50733330697745
O          -1.69881097882519    1.27100674836065    2.95249189054344
H          -2.25385524539078    2.04240377508465    2.90207158251913
H           1.15498108246576   -0.11227774753487    1.50663948279830
O          -1.62192198498287    0.56136432740612   -1.54211856962642
H          -2.30671023956066    1.22753025445548   -1.63248169848239
O           1.77984829147119   -0.88329796567842    1.42366295670777
H           2.36369262097540   -0.82559250842086    2.18109563663281
O           0.70497747539750    1.90041700961153   -1.02761676529849
H          -0.16234862877805    1.62733312937339   -1.38377840272905
H           0.57530181273489    1.90016441193272   -0.05968620685728
O          -0.11491229355075   -1.75415462273567   -2.04282605429275
H          -0.29072775595627   -2.19856774694867   -1.17547546545539
H          -0.78394567600782   -1.05720865136405   -2.11194971784494
O          -0.36272496055202   -2.48163829438455    0.49242028504614
H          -1.69177574841283    0.25907700735581   -0.60798597405420
H           0.47221915133815   -2.23900239437105    0.91346344477382
H          -0.97307037280236   -1.76341038005596    0.74165625813830
N           1.94927236265493   -0.38666088287675   -1.24927063481871
H           2.08607176064321   -0.67292255663327   -0.26126671504901
H           1.55760672182145    0.61202644094461   -1.23079287974071
H           2.80950503835710   -0.44893020609632   -1.78068080600990
H           1.16774260605762   -1.00390810072312   -1.67045937522636
