    26
        -50.45091472  Gyration_radius:  2.53811199082 Dipole_moment: 7.497
 S           1.46321480912474    1.01150532451636   -1.70676432770343
O           0.56701433825824   -0.15190323863648   -1.76276867858679
O           2.42859799709071    0.93701700099215   -0.65030945059086
O           0.67575815567168    2.23981471675320   -1.71669175386767
O           2.26514967427182    0.99119127922838   -3.07579901460435
H           1.58619128064536    1.10579897896615   -3.73365089945645
H           0.12810155823214    2.35659612632575   -0.24974588142123
O          -1.81447098938862   -1.26548988342678    1.82562775130671
H          -2.42584445991781   -1.22532949718600    2.56087460272259
O          -0.35440014982077    2.32114818880497    0.62312120461650
H          -0.34135697263707    3.21473722125838    0.96955284150060
O          -0.63073134163482   -2.80792103110572   -0.18169875821589
H          -1.03649717627188   -2.50468814918827    0.64231226932475
H          -0.05126547759982   -3.53447505966539    0.05255773799471
O           1.73291279103836   -1.31618899447946    0.58132959562974
H           2.15737450348152   -0.55584469557240    0.14083467464452
H           1.07970232348578   -1.64189821781023   -0.05517721229822
O           0.30700888163592    0.10611661412842    2.29391104282497
H           0.95403849771440   -0.44107396344787    1.78089491872877
H           0.24246611972996    0.94390768302510    1.81333295169038
H          -0.98458250042282   -0.76667691080737    2.11463242882721
N          -1.61842014114636    0.19331546780198   -0.45390114373119
H          -2.40800792899869    0.25102548877946   -1.08731739643288
H          -1.40815072395054    1.10805425837667   -0.01258674741098
H          -1.78986376125527   -0.50576198646793    0.30035634048122
H          -0.72393930732204   -0.06297673115912   -1.01292710597374
