    26
        -50.47044861  Gyration_radius:  2.42969293816 Dipole_moment: 3.699
 S          -2.11844727470164   -0.56074712065648    0.20167463032533
O          -1.70423349117141    0.83673900484449    0.17869870850260
O          -2.29608358265444   -1.07895485838555    1.52858906044690
O          -1.23228003187551   -1.37049041640707   -0.63342914692161
O          -3.54591665600793   -0.62454845444525   -0.49671002707331
H          -4.09614421635655   -0.91411458031797    0.22368919275569
H          -0.29524847384978   -0.70643773500033   -1.74250365894374
O          -0.10239124349561    0.56456140442954    2.23281282344712
H          -0.66213163024570    0.36161750011380    2.98539971019722
O           0.37812039298214   -0.36164621206236   -2.39006676517638
H           0.20084623821872   -0.81698467497106   -3.21420685625062
O           0.67194011933419   -1.83164816575761    1.17238546001065
H          -0.10189474743435   -1.90112989516767    0.58089717804835
H           0.43997136230035   -1.10550424116487    1.78287727803748
O           1.86017870766636    1.82724929964451    0.67181005909341
H           1.24927971053097    2.17314458169287   -0.02673298258005
H           1.28722210705715    1.58782844163203    1.41512009194065
O           0.09051519651057    2.21793635678324   -1.26014777552417
H          -0.67690221250469    1.88520938775092   -0.75904261895809
H          -0.73098193960314    0.72718483103363    1.49289809920477
H           0.26411589484660    1.52750143799031   -1.91311425436157
N           2.25628515092510   -0.49832274582775   -0.42172508951288
H           1.71817006183764   -1.14756040188992    0.24159009734434
H           1.71837760026931   -0.46309445539767   -1.30850059916240
H           2.21961961521923    0.48335439242391    0.02997352561063
H           3.20801333220507   -0.81114270090195   -0.57223614048925
