    26
        -50.45420607  Gyration_radius:  2.39511643294 Dipole_moment: 8.242
 S           1.96465746815488    0.65060407199241    0.02947073752540
O           2.85518539073792    1.57915956855922   -0.58148178569005
O           2.40188462092995   -0.75320249789710    0.01008944559669
O           0.60459295727861    0.63454555966415   -0.80336707699699
O           1.50659299152134    1.03672994626738    1.36675343666813
H           0.37732528358198    0.24461751192611    2.08230570438369
H           0.73784772049867    0.17413844704613   -1.65393451905357
O          -0.34878518207004   -0.31889607656794    2.48745406548656
H          -0.26361783464216   -0.20644379822477    3.43499861234813
O          -1.76367068348128   -1.11924994885592   -1.12400585832211
H          -2.66001702691117   -1.45753246111374   -1.14845322501705
O          -0.17292137492945    2.92414034455239    0.48761325059637
H           0.22656049835680    3.22365071265412   -0.33056298680578
H           0.49565680718268    2.34300372807665    0.89778382032211
O           0.18111412097330   -0.74188086114464   -3.02955782841788
H          -0.61983811821725   -0.95018834947850   -2.51660447847017
H          -0.07864065314691   -0.12032937494376   -3.71194030837461
O          -1.98312337222502    0.87522666036033    0.51431870854263
H          -1.43003486360719    1.66834084223053    0.35514229523645
H          -1.80976551953745   -0.27016901132574   -0.58127661373287
H          -1.61529632449877    0.49403447788711    1.32508277684302
N           0.26433798964353   -2.01379395255737    0.49648755043600
H          -0.03913373215640   -1.58521944444236    1.39406071028944
H           1.22809544770980   -1.51939922416954    0.24729579864698
H           0.38689470180012   -3.01716065775193    0.57768450545719
H          -0.44590131293968   -1.77472619275022   -0.22535673748763
