    26
        -50.45420599  Gyration_radius:  2.39502918104 Dipole_moment: 8.242
 S          -0.28509237611557    1.24975612601670    1.62479737951195
O          -1.04384196890765    2.16200264262724    0.75625577029041
O           0.40321491287289    1.86536529221911    2.70904774761838
O           0.79484557874276    0.60496162985700    0.64400682894231
O          -1.09741792692908    0.08925785863707    2.00007963316382
H          -1.74139375554216   -0.81722514062711    0.91476995451882
H           1.25629322861970    1.30685657909371    0.14634933038595
O           0.92939818670804   -0.37532425004034   -2.14984742140480
H           1.04656941756626   -0.92443704194044   -2.92648372379645
O          -2.13456447947205   -1.35178420169215    0.16066887210676
H          -2.90184124534347   -1.79134669055026    0.52928704905143
O           0.99477900749997   -1.54388557367078    2.33402806438094
H           1.70544577791317   -0.95602428686254    2.59499793726298
H           0.19031357036702   -0.99119921388546    2.35020938736065
O           2.14344860959179    1.91241833868594   -1.22723414154962
H           1.84825258559400    1.12376393731605   -1.71594812725571
H           3.07871191651300    1.79692445462656   -1.04980001662567
O           0.54134890069085   -2.14175661044573   -0.29510699527849
H           0.88085336697891   -1.01505324399017   -1.37148805068047
H           0.88403020116757   -1.95290956956044    0.60331424161056
H          -0.42052683271134   -2.09699083852087   -0.19158260331384
N          -1.42383034342532    0.77161950085209   -1.32168828640087
H          -0.50421036803419    0.47465454598974   -1.70754501434879
H          -1.89206388794919   -0.07207117844057   -0.93375933005825
H          -1.26171669739273    1.44270111245262   -0.45080399481077
H          -1.99100536894607    1.22972583182724   -2.02652450065914
