    26
        -50.45420595  Gyration_radius:  2.39523530271 Dipole_moment: 8.239
 S          -0.11938814663906    1.94841622452557    0.68893278582676
O           0.46382135823621    3.23849391386073    0.53394059182834
O          -0.15461560685846    1.43040409688895    2.06470514916367
O           0.78427204371197    0.89015453975223   -0.09036465513807
O          -1.42133783725340    1.78696994613185    0.03621610134257
H          -2.09386341775413    0.38962628964870   -0.06577071531263
H           1.61583138985021    0.73636466979016    0.39748291826278
O          -2.47264447625861   -0.54044069139180   -0.08585240306706
H          -3.42082328752832   -0.43058071452086   -0.16780821163656
O           1.19230858361074   -2.04640517550174   -0.14264246759529
H           1.25771785324992   -2.96008750436536   -0.42438256680154
O           2.99725794798542   -0.22644938628637    0.85030264550092
H           2.52405795647513   -1.00047714584378    0.49667501059661
H           3.70817133264676   -0.03007537109897    0.23747068401707
O          -0.41360552248516    1.64471008617537   -2.43770463639564
H           0.38898847382678    2.16641457618568   -2.38900018882998
H          -0.87087521383807    1.80392518941832   -1.59006961051195
O          -0.38959408400413   -1.04127244527728   -1.93086993755820
H           0.67093728828456   -1.57670470238782   -0.86732223014357
H          -1.22698335100417   -1.00849236326809   -1.44555977726642
H          -0.24275553100898   -0.11346611504707   -2.21010105195729
N          -0.55371215311355   -1.04321578909102    1.72450850928258
H           0.20997489942848   -1.43574904951406    1.13701891230646
H          -0.34532902654051    0.02771400316037    1.93769077812848
H          -1.42426461532499   -1.04438388883840    1.15566146224602
H          -0.66354686769398   -1.56539321309819    2.58684289370383
