    26
        -50.47250314  Gyration_radius:  2.48718866473 Dipole_moment: 2.883
 S          -1.22397113623066    0.43545045067532    1.85889604522688
O          -0.70735241797724   -0.80942775798826    1.32320255584418
O          -2.11312066822243    1.10650181500379    0.91840432527820
O          -0.19113113332692    1.32247228263476    2.35895586194061
O          -2.11088834255197    0.04140514165668    3.11102460020599
H          -2.28622333319172    0.89696377063224    3.48740115558688
H           0.91921714819666    1.64990049423496    1.26381729272201
O           1.63509821220217    1.79187443597871    0.59034777795700
H           2.04507964757675    2.62871104018419    0.81392138280708
O           1.61731115339755   -1.60329699052150   -1.55089584398133
H           2.32200039196250   -2.17735478467221   -1.85153749821933
O          -1.02841230634204   -2.14561156988172   -1.00051119454285
H          -0.09894078366823   -2.14301100583897   -1.29407525426065
H          -0.99151664100561   -1.90715954202767   -0.05575553076417
O           0.90017013851084    1.02888605841221   -1.92924564894350
H           1.19676429456064    1.39174832437558   -1.07321069941565
H           1.25757639398767    0.12314755075322   -1.96177447073109
O           1.93414320672894   -0.95300051711538    0.95133171791399
H           1.79758677943183   -1.41631571568453   -0.58390151536382
H           2.13509512915604   -0.00624645434652    0.91759501193379
H           1.00021957335645   -0.99365432434713    1.24005080272884
N          -1.62260518292900    0.35897640205803   -1.53034962975199
H          -1.52056059996528   -0.69786385549640   -1.45132757504494
H          -1.88276171398625    0.70879010310929   -0.56283670871042
H          -0.66206515075699    0.74104690228808   -1.77535235487435
H          -2.32071263850843    0.62706774579764   -2.21417460538619
