    26
        -50.45420599  Gyration_radius:  2.39505875289 Dipole_moment: 8.245
 S          -1.32951006996183   -0.13552129522996   -1.58071053929079
O          -1.65567982336979   -0.93189427210469   -2.71549472823876
O          -1.11173858582503    1.29334552117204   -1.85122761815810
O           0.07368745733359   -0.62948803628672   -1.00560506140806
O          -2.21973869130196   -0.31998364581098   -0.43147704554107
H          -1.88251671747099    0.31345955555869    0.94699002792070
H           0.79649951027223   -0.34616135344631   -1.59766510941107
O           2.20413342437848    0.38634619165699    0.78798807682792
H           2.83178581700813    0.48485866378946    1.50547475087301
O          -1.60631626366183    0.75999787772105    1.80323572162161
H          -2.41468297864162    0.88194882140863    2.30270882902112
O          -1.20897417498953   -2.70091290661376    0.25044611633307
H          -1.71154386123829   -1.90086255161034    0.00489460399757
H          -0.90078721931752   -3.06561653486911   -0.58068736408575
O           2.45108498802987    0.08877327965310   -1.93364890870279
H           2.57500578111657    0.20151081052678   -0.97447716910196
H           2.92173159813343   -0.70837825910717   -2.18386442461641
O           0.43624253211601   -1.19429273016723    1.83059876268011
H          -0.26793518351434   -0.56803429262222    2.05375626010286
H          -0.00447036562619   -1.84573425656560    1.24606013025519
H           1.54356316446503   -0.30904207700312    1.10033472044186
N           0.11553159776877    2.07529723024712    0.21697019183133
H           0.98853390294732    1.52016391975565    0.32773834439825
H           0.30541054565531    3.07131827702646    0.23211053463213
H          -0.39097834140615    1.78628960183851   -0.72913104549737
H          -0.53833804290177    1.79261249108614    0.97468192312006
