    26
        -50.46628191  Gyration_radius:  2.58439721613 Dipole_moment: 3.889
 S           1.13098031164610   -1.12357132855419   -0.25955134005404
O          -0.30480937678635   -1.07279399741785   -0.54677153906579
O           1.39025660323875   -0.96992629849744    1.15381022293773
O           1.87557974764082   -0.16017039628399   -1.06889757686058
O           1.58494007177415   -2.55830417055751   -0.69825503286776
H           2.55882007123055   -2.49835544306254   -0.67951914640350
H           0.75285603326920    0.88949016200240   -1.94882375057747
O          -0.20095676721151    1.04143005464254   -2.09517645177251
H          -0.55431425499768    0.18296277037450   -1.79433075068656
O           0.03929063080254    1.04909569146851    2.08941339850528
H           0.70292122911668    0.38365573054333    1.78351070899533
O          -3.36676113747777    0.78269029226381    0.25259554060048
H          -3.53077016977560    0.32204613309014   -0.57290438005046
H          -2.95925256881882    0.12219746515897    0.84823685870082
O           4.05508215231219   -1.60568451969478   -0.88151122086232
H           4.48469106943888   -1.64388097496095   -1.73908878959330
H           3.42531550908389   -0.85673292523461   -0.92072698555346
O          -1.80383227604903   -0.96376106172807    1.58620362692468
H          -1.79634382066563   -1.81848039251964    2.01847628755626
H          -0.71177998776738    0.49446806061600    2.34940794428850
H          -1.20708496248500   -1.05409064722245    0.79955848676623
N          -1.11283537291502    2.24292562057969    0.06229070112056
H          -1.12618135844341    3.25584752165764    0.09691832774771
H          -0.69191297823532    1.88366981343115   -0.85001013000536
H          -0.55466546802334    1.83282295463798    0.88352387582393
H          -2.07923292987506    1.84244985522566    0.13162108440477
