    26
        -50.47250314  Gyration_radius:  2.48728659851 Dipole_moment: 2.885
 S           1.35927120027225   -1.42485564809403   -1.12546129916386
O           1.86527147807291   -1.73688861055775    0.20571073915149
O           1.10985908511108   -0.00581765149492   -1.29213789351195
O           0.22745155757331   -2.25691704693841   -1.48630647376606
O           2.51769619521646   -1.79073548468578   -2.14235481599180
H           2.52040008234385   -2.73977240882143   -2.08197432038314
H          -1.09957872252579   -1.86291945854512   -0.69660547538450
O          -1.93082554260276   -1.56369600566554   -0.24318486978957
H          -2.50624882507146   -2.32950449095991   -0.21554896022852
O          -1.36772897487130    2.37491636772650    0.28466023453941
H          -1.93421953417664    3.13118749851258    0.13100481072792
O          -1.45509130457144    0.11699177115412    1.85912457904116
H          -1.55717984916313    0.98573466132029    1.43009302931983
H          -1.68874878295725   -0.53724206979793    1.17369834841858
O           1.38017967221211    2.16054426005535    0.29597501910080
H           1.44068478190325    1.53136426911305   -0.44647589171314
H           0.44819842649660    2.44587358265997    0.30474884609428
O          -1.41977086118228    0.73082529782687   -1.73491384280362
H          -0.47424707741887    0.48020339624987   -1.75311949632249
H          -1.86923224980456   -0.05066623496922   -1.38107407796636
H          -1.42553205676645    1.80582682524993   -0.53712275497278
N           1.18465197725972    0.10429928032462    1.92105485771515
H           1.38380180039690    1.01231504119485    1.40214811726969
H           0.12982142575530    0.03959662362121    2.02978262685832
H           1.50193464483239   -0.68196906779397    1.28289827041190
H           1.65918145359486    0.06130529321539    2.81538067346518
