    26
        -50.46628351  Gyration_radius:  2.58819226872 Dipole_moment: 3.872
 S          -0.40965798416077   -1.40172436630899    0.70230707357816
O          -0.52792635976283   -0.00217244421032    1.12167824673246
O           0.96348356559284   -1.74856939974187    0.41454175035563
O          -1.30565056507550   -1.70731544529815   -0.41077971042272
O          -0.88799856791113   -2.23874224038611    1.93828886582633
H          -0.98250121001328   -3.13847958691718    1.57243614400648
H          -2.02428297928269   -0.19801364546967   -1.06183657836790
O           2.09960520638706    0.07647327115133   -1.05153683264417
H           1.70313246808739   -0.72860262793254   -0.63666943285594
O          -2.02823304044309    0.76122311351196   -0.88470012039058
H          -1.68870413586666    0.76299738246181    0.03136025851864
O           0.63149807263645    3.39020362671456    0.33174025714003
H           1.16505283270726    2.72736689692230    0.81528915878471
H          -0.18446222762241    3.47968518602755    0.82845729904452
O          -1.36166800137155   -4.24037022885242    0.26162729513084
H          -1.33336731542573   -3.40364347841679   -0.24660416309063
H          -2.26270576821524   -4.56538308728513    0.19865241691759
O           1.75467845597265    1.21393376323194    1.45833210548427
H           0.90787576478786    0.70620513897625    1.36549393380986
H           2.15561226686836    0.90615807480369    2.27189680057127
H           2.42760515118140    0.57025826654922   -0.28496870849768
N           0.23573086894417    1.76584029094948   -1.77712172074638
H           0.28990846084058    2.10069245735699   -2.73224919226677
H           0.98520457899853    1.02046152173112   -1.58202984031162
H           0.40017938749054    2.53854521639133   -1.08779173616188
H          -0.72240894536760    1.35297234403967   -1.55581358015970
