    26
        -50.47250310  Gyration_radius:  2.48725122324 Dipole_moment: 2.887
 S          -1.80933496802414   -0.77948212236971    1.12391904264120
O          -0.93384665563308   -1.41563726194912    0.15825645055006
O          -2.45769256722427    0.40526925141996    0.57478884288712
O          -1.16691781976081   -0.50818483683671    2.39568087677856
O          -2.96315521847150   -1.82225010846501    1.42602356100355
H          -3.40079765720319   -1.40301662739330    2.15884094319568
H           0.15846715850316    0.36246657288513    2.23776508571558
O           1.01417615402304    0.85135022934652    2.11554271193228
H           1.17489022517455    1.31156244703313    2.94059898014300
O           2.28575285058478   -0.33447846972509   -1.50216741526283
H           3.14045211330994   -0.62715903803821   -1.81892466893993
O          -0.25641582266351   -0.90213092322396   -2.40387273153050
H           0.70199287197545   -0.78068511437677   -2.27441081894144
H          -0.56492232445059   -1.33472693267675   -1.58623920499889
O           1.26830902641497    1.96036729912345   -0.36941828997124
H           1.77295621581827    1.26742135372956   -0.83241469473253
H           1.20692277630104    1.65829345736074    0.55659334161360
O           1.66997052428231   -1.48589943510370    0.75169607449637
H           0.71575795498078   -1.63273461954106    0.59315873909457
H           2.11319162566835   -0.83283728326867   -0.65107668369623
H           1.69876912199015   -0.76128134655509    1.39354211087487
N          -1.08764595187354    1.38623278076565   -1.41424579755893
H          -0.82933119245889    0.52564448571738   -1.98529642043205
H          -1.70048204161929    1.04511900269427   -0.61786917322731
H          -0.18357638837414    1.76150193828874   -1.00130758005292
H          -1.56749001126890    2.08527527101066   -1.96916325132025
