    26
        -50.47250315  Gyration_radius:  2.48724021396 Dipole_moment: 2.885
 S          -1.88105885748961    0.86065496018673    0.92994942006643
O          -0.89608302902274   -0.06850984583374    1.44968638201617
O          -2.51522585609596    0.36096051366411   -0.28386284900805
O          -1.37235918226134    2.20863130926801    0.76271528599789
O          -3.02100132987715    0.95254791701358    2.02614919201239
H          -3.54003428894282    1.67505226953341    1.68993559880915
H          -0.06952437838655    2.26584114639531   -0.15289820024130
O           0.77690481914876    2.27565035475038   -0.67223951802736
H           0.84251989008581    3.15268405476464   -1.05280940762355
O           2.42929223315162   -1.29198863749172    0.13154266697560
H           3.31965629858465   -1.54851826237756    0.37227647266828
O           0.00773060155019   -2.49081521269714    0.67401057138179
H          -0.36334848223362   -1.75191040509460    1.19091713137900
H           0.94438093286446   -2.25573870817812    0.54137663048296
O           1.22941979983705   -0.05909353558765   -2.01923186366684
H           1.79998478089329   -0.53168309511306   -1.38654887901821
H           1.09027196097627    0.82472747043541   -1.62948122318911
O           1.63885324406829    0.77338820128190    1.50770657049862
H           2.19247376502336   -0.51184284986332    0.71277865612241
H           1.58009988476144    1.47869355491269    0.84660919060676
H           0.71027235148427    0.50779840195848    1.66366926470827
N          -0.99378621403996   -1.38073720080879   -1.48710625090530
H          -0.14744952005485   -0.84701258503606   -1.84415080528057
H          -1.44181673044708   -1.91342866899432   -2.22354578120743
H          -0.65162499533549   -2.00065465857069   -0.69194562410120
H          -1.66854770824777   -0.68469649851905   -1.05550264143987
