    26
        -50.45592070  Gyration_radius:  2.62439067428 Dipole_moment: 4.116
 S          -0.65611206818374   -1.14883581868130    2.31505308301474
O          -1.57209478120731   -0.02440658007336    2.54917795746089
O           0.59478614955977   -0.70963411398258    1.74825854720813
O          -1.29470572968724   -2.20489742075424    1.54832968897842
O          -0.33649085012770   -1.75797543339475    3.74695199558343
H          -1.16663273473459   -2.14742176144081    4.00674998320080
H          -0.94196684129942   -1.85153139934686   -0.02510221718721
O           0.38232951202378    2.40600208086420   -0.74638592185514
H           0.67501821164462    3.31356465226955   -0.66115543905367
O          -0.72516546769745   -1.36121854283683   -0.85431613116848
H           0.24557138983251   -1.36263823248096   -0.90585494114752
O           1.95024453653415   -0.96352067858268   -1.73983349155557
H           1.44639774111941   -0.35856162890535   -2.32998470960455
H           2.42482586231411   -1.57687542566635   -2.30096824953614
O           0.17773395191443    0.66786568489117   -2.90704159307266
H          -0.53701196246919    0.08395992210973   -2.63496961991257
H           0.21534476680426    1.39064066518508   -2.25668452342574
O           2.14786698144073    0.87672680231157    0.31319449539832
H           1.11046851595948    1.83892007272311   -0.32108552816200
H           1.65927492037123    0.36628308081335    0.98926832976004
H           2.34609363569519    0.21769494862954   -0.37075820851885
N          -1.64686841021209    0.88848855070025    0.15723761585931
H          -1.64419891660505    0.62600079239763    1.20564833285991
H          -0.95885067335775    1.64082017173664   -0.05119926347885
H          -1.31453071887497    0.00114521341693   -0.33534501777974
H          -2.58132703068474    1.14940440810432   -0.13918516383948
