    26
        -50.44323572  Gyration_radius:  2.56227928893 Dipole_moment: 6.604
 S          -1.60499604560476    0.66441042687310    1.86872740412414
O          -1.59599687751391    1.14888267968710    0.51042532670599
O          -2.41441634087098    1.35317080981591    2.80103606002570
O          -0.10758678398746    0.61963700094272    2.34022188187302
O          -1.96953957359491   -0.83557800445646    1.88359346005925
H          -1.43543463518720   -1.33187312546452    1.20393398482015
H           0.30326052707171    1.45137205433342    1.92306819637171
O           2.00012754627786    1.01574212294997   -0.82884412294273
H           2.70489666136092    1.18434245556768   -1.45439987548288
O          -0.43845346406514   -2.25400486599393    0.31854765641607
H          -0.41204564017105   -3.09953814153409    0.77185049794793
O          -0.58882067437522   -2.13686654553992   -2.46940697754651
H          -0.01167244249265   -2.84426597492734   -2.76053743004055
H          -0.65986668956311   -2.21109759328333   -1.50392853614540
O           0.67847821174380    2.56925847006728    0.93422618138195
H          -0.18953640791847    2.52702754400682    0.50749508496833
H           1.29849311165519    2.13132748489714    0.31239474177549
O           1.72415042020825   -0.99389423691338    0.95895578645629
H           0.44503550370197   -1.80764249650734    0.50122269036496
H           1.93970426477130   -0.31704826168987    0.28465793483864
H           1.35049348910558   -0.50429958077864    1.70426379814624
N          -0.27332478286619    0.73966727811841   -2.03527234874349
H           1.13602366972982    0.89283914031723   -1.36985036986368
H          -0.40984912779189   -0.20534547915480   -2.38802546876609
H          -0.91351938054058    0.85949746822428   -1.25176238808525
H          -0.55560453908266    1.38427934044027   -2.76259317865680
