    26
        -50.46507308  Gyration_radius:  2.55396844814 Dipole_moment: 4.278
 S          -0.36124760135804   -0.80318554316860    0.47090293778994
O          -1.57317919530381   -0.97794896613157    1.26269470953083
O          -0.18874392566429   -2.06057816628456   -0.41878473372554
O          -0.51747364340677    0.34542012442541   -0.43216268017257
O           0.82855065958344   -0.65227758427997    1.29678993519904
O           3.03654424453177   -0.81321385408112   -2.07799115601036
H           3.50965636334731   -1.13788133689756   -2.84551662620515
O          -2.55488641818451    2.02331007949193   -0.41450279660379
H          -1.76516151472079    1.44691538780934   -0.54002399188994
H          -3.24165805119390    1.64971456704937   -0.96876800468966
O           0.56168519053678    1.88591440021151    1.84196549817906
H          -1.00977291804029    1.74236386577832    2.15564825598247
H           0.79234068338805    0.93185050971316    1.73162584260792
H           0.67351721695043    2.26524661607175    0.96603364183023
O           0.45695734924250   -0.51539653999760   -2.74257163420400
H           2.12514776564203   -0.59889341260424   -2.38326403315252
H           0.10003075669314   -1.40725440558519   -2.71135114323652
H           0.09897437744868   -0.07877328447560   -1.94167808835069
O           2.29326531641006   -2.41291357667215   -0.06018332079805
H           0.78769966044437   -2.33571441584353   -0.32340761194258
H           2.70168535253839   -1.87267101936796   -0.77477583538018
H           2.17848953340618   -1.80686451182605    0.68911033969651
N          -2.01578006315692    1.40553852069779    2.11068923921534
H          -1.93198462932113    0.35696934970636    1.88251605478203
H          -2.45223121106034    1.83430982116475    1.26310490699153
H          -2.53242532885930    1.58601338514399    2.96390030463766
