    26
        -50.47105003  Gyration_radius:  2.42705231416 Dipole_moment: 5.043
 S          -1.93335464522983    0.14498253816749   -0.24674044112844
O          -2.40495843438644   -0.78566306531317    0.74254751231805
O          -1.21792988141899   -0.46743152811004   -1.35397693709508
O          -1.14491443475442    1.24525578800335    0.31569674683153
O          -3.22695032930670    0.82713288940907   -0.85634792692972
H          -3.87796235541353    0.17665940765082   -0.61896900022851
H          -0.32589905444844    0.80447732712722    1.71242892336225
O           0.25450822700720    0.55070970450069    2.46326037764050
H          -0.08802259594157    1.00347493252095    3.23492095871382
O           2.37790905794832    0.15708104636638    0.72212646011469
H           1.86211828254996    0.28331267121424    1.53364035717602
O           0.94037590420520   -1.77486672736668   -0.36266905272880
H           0.15419339598623   -1.37581963725263   -0.77538354527096
H           2.00185772050170   -0.66616519565055    0.31562803735323
O           0.80319516935239    0.03280255613934   -3.01034495834033
H          -0.07211889807064   -0.18092275128440   -2.63072056875490
H           1.33982626425522   -0.74977242554258   -2.85277618540333
O          -0.38115089091705   -2.14686495316743    1.93369486383842
H           0.58906208390159   -2.16957917465078    0.46408100611412
H          -0.02757458893753   -1.37478603565633    2.39682374598110
H          -1.22484425158764   -1.83910738340625    1.55848016606709
N           1.13050718196598    1.69412445433283   -0.95091648126923
H           1.41893685386547    2.65592726412845   -1.08774994835133
H           1.77792104021459    1.15927272665768   -0.26772170700406
H           0.17182958249862    1.63745390381324   -0.52089565566528
H           1.10343959627354    1.15831165739255   -1.85811676738016
