    26
        -50.47398736  Gyration_radius:  2.43822829503 Dipole_moment: 2.202
 S          -0.31479939962822   -1.72372483883001    0.79573049750181
O           0.40116778984797   -0.71607303994628    1.55340445446527
O           0.05588688211386   -1.67326153861818   -0.61762097556697
O          -1.74559237533794   -1.71750633103813    0.99343973647448
O           0.18999489533590   -3.12274528295924    1.33572395924552
H          -0.57567083669264   -3.65696123592462    1.15820426340730
H          -2.47557709002066   -0.28263471596942    0.68752990068638
O           0.39945160250229    1.98033112599590   -1.59877345921131
H          -0.34678382572575    1.43847985224691   -1.94809718901105
O          -2.84149771746733    0.59332537114977    0.42054926453713
H          -3.76574757603322    0.58802375687615    0.67354552605768
O          -1.49117042949902    0.14570303244122   -1.97078652570368
H          -1.01656099480480   -0.61782973773680   -1.60178530131860
H          -2.13629453546555    0.39692414825807   -1.29159376341653
O           2.78710576466392    0.43112606598581    1.38446117386720
H           1.99843534404543   -0.09488966887396    1.63006960706758
H           2.60348059406149    1.32272263151844    1.69096754443057
O          -0.39057182373721    1.80064081522594    0.94922189243814
H          -0.07873202660084    0.93054047842429    1.25620420224245
H           0.14949986296855    2.14233177441477   -0.66037273272709
H          -1.34484291311972    1.68407587248687    0.83443818505012
N           2.01799499134774    0.02167015593959   -1.15070516968343
H           1.43435558864070    0.90279567904663   -1.42522661183757
H           1.31285790744877   -0.74004707863373   -0.97950704990634
H           2.67131458975785   -0.24446972239163   -1.87826582478743
H           2.50229572135463    0.21145244092402   -0.24075562433022
