    26
        -50.47105021  Gyration_radius:  2.4269798535 Dipole_moment: 5.035
 S           0.33395147324234   -1.74990250697860   -0.80333272638802
O           1.76498919787317   -1.71997403631306   -0.93857153320514
O          -0.36883289531157   -0.80570776837468   -1.65642085036597
O          -0.12492877988277   -1.61565756685563    0.58222220226065
O          -0.11776815413602   -3.20032711606550   -1.25341913680567
H           0.63566068890875   -3.44876182584708   -1.77666205459283
H           0.92709337838023   -0.70981716171809    1.52501238094128
O          -0.28918171209347    1.97933279427094    1.48307710972821
H           0.41049997293144    1.45454292162397    1.90200982578870
O           1.45882044867302   -0.09259138024026    2.07390995508800
H           1.88722139932706   -0.62688735570773    2.74381302443047
O          -2.53755813490871    0.73545991936446   -1.65094251973198
H          -1.85411912057248    0.07274753006529   -1.87373145932012
H          -2.13443434355335    1.58529821934539   -1.85192906631305
O           0.46007141864508    1.69903973485994   -1.03381733894850
H           0.16358374751034    0.82537156617015   -1.34458078238149
H          -0.00175164373395    2.06451919042770    0.53723571299072
O           2.81812991167708    0.69115071931280   -0.27089942553517
H           2.60974640786194    0.61069318931402    0.67024969550068
H           2.62078426833614   -0.18808052916965   -0.63874389332453
H           1.42115718019884    1.57329339433041   -0.88152059069582
N          -2.04930547110258    0.16583992054052    0.90763249845353
H          -2.41419296068444    0.42205048943600   -0.04735155445775
H          -1.39325476287840   -0.64815221020275    0.78834539556695
H          -1.42726886546898    0.98067088623160    1.25551735811657
H          -2.79911266927649   -0.05415100780207    1.55289778319136
