    26
        -50.46201482  Gyration_radius:  2.69183666945 Dipole_moment: 2.860
 S          -1.46778266197997   -0.45274232407984    2.24533169568748
O          -0.54372680478867   -1.47230329892407    1.81519215543653
O          -2.43898835147826   -0.09555787070216    1.21077675189157
O          -0.81817160197174    0.73673476154887    2.77942338820637
O          -2.30731111461817   -1.07008698050366    3.43945903566080
H          -2.81755719186667   -0.31715231543399    3.71944463933847
H           0.19115365704295    1.31781343220913    1.73393929563046
O           1.94941499170873    0.67582388609864   -2.77020638080664
H           2.67178662763248    0.38570580081741   -3.32767208939270
O           0.74163644404967    1.72180305697646    1.00368535819877
H           1.13937704541555    2.50962524269380    1.37807323363180
O          -0.35351183171898   -0.64586031683814   -2.47547456855093
H          -0.06608208995940   -1.33640950122383   -1.84988542749418
H           0.46976437820716   -0.18650534573240   -2.75605565272349
O           0.57885501625575   -2.16552843791759   -0.41318947937439
H           0.11052404207299   -1.89727620149465    0.41658157435070
H           0.73508571433664   -3.10676032942693   -0.32562195177804
O           2.40777933093213   -0.09275884990226   -0.27975562120900
H           2.21712434529231    0.46280211118450   -1.84007918293575
H           1.92163972384169    0.53297534757901    0.28082207308955
H           1.88401661333073   -0.91193598931322   -0.26476297187001
N          -1.24605390837661    1.10015557735764   -0.75675022390653
H          -0.93876642430258    0.38732998834289   -1.50858831439120
H          -1.80659616705165    0.59195940618675   -0.00164594787410
H          -0.41151401644963    1.48860131728861   -0.28090875434623
H          -1.80209575555359    1.83954783320763   -1.17213263447031
