    26
        -50.46994737  Gyration_radius:  2.45766612806 Dipole_moment: 1.911
 S          -1.88709743094322   -1.17148675870631   -0.30161278374381
O          -0.77379917866259   -1.09367852602922   -1.24104915517116
O          -2.11295800681445    0.13075011560984    0.32684844176896
O          -1.78002343650409   -2.25566985870092    0.63293749005120
O          -3.17936852716136   -1.46335810172670   -1.18223679756593
H          -3.65411905541290   -2.08756673885096   -0.64250112548054
H           0.60138815591304   -2.79371815393333    0.85662566319718
O           1.25974623521074    1.94189836055334    1.40043651549190
H           1.93900574593973    1.45187658600878    0.91181432161680
O           0.98770357997161   -2.00582299093422    0.46545960359290
H           0.34399991497152   -1.74164451291027   -0.23017773980672
O           0.86108597852375    0.77053873331425   -2.23899089993263
H           1.63186652584722    0.58219439380865   -1.67817588323317
H           0.27125281612323    0.00218797817022   -2.11813097666452
O           2.64157872216645    0.07784395968254   -0.17954208585221
H           2.12956195619370   -0.69984613581895    0.10658757909424
H           3.55411187448670   -0.20686244057916   -0.24648110702285
O          -0.16373136229550   -0.13915003230375    2.21555631565562
H          -1.00684711677915   -0.07564762001793    1.73979826046750
H           0.29736769042747   -0.89089536741065    1.81206311537350
H           0.77328127736328    1.25079405369399    1.91099205245421
N          -0.56312743323842    2.11336066300457   -0.47300252056879
H          -0.03122956907496    1.72962372846845   -1.30770376893978
H          -1.02558259860887    2.99112278801396   -0.67826627087283
H          -1.26207509012753    1.37631753798674   -0.18394126428279
H           0.14800834245976    2.20683835926684    0.32269301055712
