    26
        -50.46282805  Gyration_radius:  2.48641060186 Dipole_moment: 6.983
 S          -2.02954008407963    0.14103335021487    0.52308735077218
O          -2.49679624069834   -0.75587963338113   -0.52783752720619
O          -1.63340311136402    1.44191169594048    0.05721179497268
O          -0.98760656931923   -0.51112931152464    1.32107135139262
O          -3.26481820362834    0.34816056587784    1.48938358018044
H          -3.68835804044078   -0.50419680584295    1.48426818040533
H          -0.01857665375775   -1.58040658447337    0.64355723157854
O           0.58920505769420   -2.20669565535411    0.16729974951564
H           0.44394608558232   -3.07032273081814    0.55630402859701
O           0.21915407380215    1.49018145988380   -1.89042086146008
H          -0.50095527419489    1.69856437501880   -1.26431936576047
O           2.82914731972125   -0.75119802147295    0.94248373720635
H           2.53663501438140   -0.39788858882228    1.78637479742145
H           2.11990245420628   -1.33699384286897    0.63258197979194
O           0.46542522491958    1.68649410138850    1.88565724267399
H          -0.00695131347204    0.84149493443354    1.77846090991877
H          -0.16916277518968    2.34589872903656    1.59171997034740
O           2.21256180932679    1.65398561524320   -0.21281466716495
H           2.66183463064614    0.81331431157233   -0.01757689525694
H           1.05627936923807    1.60709886215199   -1.35911971449798
H           1.68082464166193    1.83027978504622    0.58865528070620
N          -0.39358739724754   -0.98208814890608   -2.06313226261471
H          -0.03703031811604    0.06718348878520   -2.08082473677174
H          -0.47186480147715   -1.37066550029977   -2.99642357718273
H           0.21587523037770   -1.55669738552545   -1.46053325322216
H          -1.33214013862249   -0.94143907523500   -1.57511433398902
