    26
        -50.46507225  Gyration_radius:  2.55303141817 Dipole_moment: 4.279
 S          -0.68785508488510   -0.37586645539716   -0.62578426136570
O          -0.49299768931400    0.87691178931454   -1.34192803077175
O          -0.06948650350789   -1.52484769626246   -1.46254013855505
O           0.01744999716048   -0.35391139602048    0.66320483710134
O          -2.09682455441670   -0.68522515515698   -0.41311281102729
O           3.44964392079122    0.00737522286925   -1.50553814523011
H           4.29068588995647   -0.36942114196411   -1.76827364952810
O          -1.13706573450500   -0.53862785230208    3.02980046562732
H          -0.59406506994702   -0.49657909784528    2.20819322282794
H          -1.21793313523927   -1.46966207492525    3.24243951015584
O           1.27718202483594   -0.10573172370877   -3.07076762389395
H           2.13937077007132    0.00242192209522   -2.60769747275885
H           0.47812032366451   -1.07135952763764   -2.19240428236842
H           0.71923182398208    0.62201427623970   -2.75299985596922
O           2.26050824472562   -1.68778196851455    0.19665113775095
H           1.89121130694429   -2.37181012918023   -0.36869954939972
H           3.09547157920750   -0.57312716219084   -0.79320219365878
H           1.48602469795155   -1.15921970095012    0.48140303729424
O          -0.75693974907361    2.48819881616504    0.69438071136400
H           0.00852469567900    2.23273993732806    1.21645590271695
H          -0.64121129605345    2.01463233877354   -0.16445844678964
H          -2.05015375309220    1.71035119520472    1.25198868923211
N          -2.72574434570945    0.92518370908308    1.48615174753897
H          -3.67629864136374    1.24866743151277    1.62491754248799
H          -2.33738268087894    0.41398286331923    2.31082547398680
H          -2.62946701714111    0.24069157983442    0.66099418322111
