    26
        -50.45930132  Gyration_radius:  2.51674814751 Dipole_moment: 6.819
 S          -0.94587396526599    0.79513566493227   -0.95727191493807
O          -1.68349546688240   -0.09069846670864   -0.05366440254906
O           0.04214093640072    0.08050907371818   -1.72045448676137
O          -0.36242333642644    1.90603615619810   -0.18689984360647
O          -1.97160085506652    1.41316570348229   -1.95303813170353
H          -2.50000783972165    2.01865127520492   -1.39604470929416
H           0.68292873249217    1.41348811904715    0.90853715930554
O           1.93408352676928   -2.56011878683380    0.06368437389107
H           2.71448231797025   -3.04883228149970    0.32471083133017
O           1.31171705414836    1.04881034219084    1.58882355554023
H           1.50981248496474    1.77536439763961    2.18173060884989
O          -2.64724985588944    3.18699927204463   -0.10697274141019
H          -1.75298503938664    2.83909105311176    0.08817725111457
H          -2.53099284326191    4.09357156278015   -0.40033841357832
O          -1.01106198264390   -2.61723571335936   -0.96338217362786
H          -0.27404841472912   -2.40231613171281   -1.54038960104913
H          -1.48725974866526   -1.78606286884286   -0.84210222705672
O           2.50897556987034   -0.12426823553766   -0.73649716068434
H           1.69000705091541    0.00617321451657   -1.25635871954565
H           2.38224240730074    0.39653590193438    0.06682741221865
H           2.24477044313660   -1.70975966880873   -0.34235518485829
N           0.03010727004443   -1.34100498727055    1.47035291152793
H          -0.73186896628396   -0.93020058704632    0.84432994750029
H          -0.39074788713191   -1.85392133414151    2.23790340795953
H           0.64231123665180   -1.97548313046577    0.89046311631007
H           0.59603716069718   -0.53362952457843    1.79022912511997
