    26
        -50.46387327  Gyration_radius:  2.44883903758 Dipole_moment: 6.464
 S           1.35606090519996   -1.15165606483065    0.42472368938301
O           0.77071223866489   -2.27840537597459    1.13222764974086
O           0.76287865184719    0.09480369487786    0.88991707870030
O           1.20657014768084   -1.27389768338236   -1.03123948693223
O           2.88166649909944   -1.11934433710833    0.73425243790277
H           3.23949088701056   -0.46516943266007    0.08439251161220
H          -0.30052975573461   -1.08373850601829   -1.38707960541401
O          -2.24981897953053    1.05592689870900    1.67502330233875
H          -3.15928365208057    1.35617208793963    1.71701606520774
O          -1.28552385159302   -0.99190256952337   -1.54515549298012
H          -1.45670663336097   -1.42781896526782   -2.38177367314174
O           3.16585472437991    0.55725161428943   -1.26193326236325
H           2.64603647506367    1.35697737128924   -1.06947464641479
H           2.52326977420679   -0.07895678549615   -1.61307748329067
O           1.20712773578193    2.29628531844019   -0.34532350228786
H           1.04442429405468    1.45924769741659    0.17144303941665
H           1.37201630411245    2.97770007103889    0.30837285426795
O          -1.48092298846981    1.72295138632256   -0.76038074031697
H          -1.42595182920529    0.84240171012568   -1.16027426989091
H          -1.88795531985051    1.40150782520993    0.81617977171090
H          -0.56722984267174    2.05694093408264   -0.74215143453999
N          -1.69602638815734   -1.47436068691139    1.08651155274935
H          -0.69378064751138   -1.80703542673104    1.26635841392425
H          -1.83767623041813   -0.49937660965671    1.47732860454082
H          -1.76418416496238   -1.39430007476840    0.05048012656342
H          -2.37051834366161   -2.13220411112729    1.46363652007912
