    26
        -50.45831071  Gyration_radius:  2.61378365706 Dipole_moment: 7.248
 S          -0.21108728232127   -0.70315510354165    1.46356114383650
O           1.16927019500440   -0.21401706677095    1.70619568712901
O          -0.23845061965466   -1.59389540014438    0.33219550551438
O          -1.11619977396115    0.42585478166073    1.32240379909053
O          -0.62787677969042   -1.51349542314047    2.73126534088312
H          -0.42131469395369   -0.90769118796326    3.46890559311572
H          -0.86631297422543    1.41565510170607    0.17103980449042
O          -0.60094015416798    2.06366325757674   -0.55409481484130
H          -0.77811683221612    2.93151935346184   -0.18664765549977
O           1.24627399463678   -1.58755651253935   -2.11166717756631
H           1.26034418762131   -2.22314624906480   -1.38822633214393
O          -2.22751311356095    1.06871005215992   -2.53775548059083
H          -1.91740066091748    1.45204343948094   -3.35941469312666
H          -1.71440014195337    1.47658848992295   -1.81755855159385
O           0.63421258996566    0.28505273762085    4.22994170513321
H           0.99707366091033    0.29815521575337    3.32088199038794
H           1.31211077284915   -0.10150062681528    4.78876775952817
O          -1.35257592911889   -1.51277982818179   -2.17035611740351
H          -1.79952790673247   -0.65881409398311   -2.31198845448828
H           0.27458945414627   -1.54804491735847   -2.34105649162047
H          -1.26048954264668   -1.61758277142293   -1.20919969097739
N           1.66866542299628    0.57237367881089   -0.72345171038959
H           2.57442173003534    0.99471841155901   -0.89904528884300
H           1.58789801944150    0.23471533143513    0.28452231359221
H           0.89948710814531    1.25733042119606   -0.85045498567837
H           1.50785924931941   -0.29470110155653   -1.35876319795476
