    26
        -50.46282800  Gyration_radius:  2.48659477462 Dipole_moment: 6.978
 S           1.45993562805030    0.28745820370986   -1.48357021399298
O           1.84566196445372    1.10055176202099   -0.36268863781615
O           0.56061944028781    0.94815190911116   -2.42277834927206
O           0.90608712018395   -1.00621636455349   -1.07441067969246
O           2.77515785101209   -0.03129345563283   -2.30290828995579
H           2.44365730373150   -0.24534303180012   -3.16903553492753
H          -0.67377976256232   -1.20743127927388   -1.00103680722830
O          -0.15976625877672    2.15490326259059    1.08444752218963
H           0.69767100920405    1.95196957548006    0.66303904046776
O          -1.66318194397294   -1.27161598487136   -0.92769774418700
H          -1.93949449135074   -1.91850449579610   -1.57845414267499
O           1.86104942394332   -1.03095178276582    1.44490790515329
H           1.50652259768544   -1.14219933207186    0.54457334330620
H           2.47439627654128   -0.29539622031666    1.36355067795790
O          -1.50095093102242   -2.04462492533082    1.73919589063412
H          -0.66149822551737   -2.51138881363822    1.74565107902554
H          -1.66797627671357   -1.79850754012438    0.81520540338429
O          -0.22085443602797    0.15192638788330    2.75750894582180
H          -0.24687270003997    1.48047828370317    1.81537330683377
H          -0.90549099310638   -0.51647156067854    2.58098117359460
H           0.60847553942792   -0.27502534787878    2.46399561818340
N          -1.53687085209559    1.45332727171127   -0.94745295468433
H          -1.91399958348615    0.50042985655717   -0.82737258184193
H          -2.24966489572656    2.10134971973249   -1.26388131198568
H          -1.05288544592801    1.79613230751465   -0.01109913210868
H          -0.74594735834447    1.36829160393017   -1.64604351638219
