    26
        -50.46507288  Gyration_radius:  2.55358461006 Dipole_moment: 4.279
 S           0.58584780574709   -0.80148217828275   -0.13144344012795
O           0.40703609211501   -1.98202837732939   -0.96838074203479
O          -0.71805343180084   -0.18022438125568    0.13885828478710
O           1.15871036693527   -1.26706412701634    1.23138813326900
O           1.50605201561690    0.16374294644439   -0.71622700625305
O           1.27085804251664    2.26660127410030    2.72572314770710
H           1.40653093477268    2.56030626810962    3.62775555816430
O          -3.00305528992596   -0.90496715357560   -0.96589936718640
H          -3.36969742299026   -1.61287021762058   -0.43395129934943
H          -2.22316590712724   -0.56896692816948   -0.46536283497203
O           2.91652452292178    0.53444366113466    1.51137812993683
H           2.43054772407750    1.25240975199578    1.97795058577943
H           1.92517181537037   -0.62957811579486    1.44185198540440
H           2.77146561914456    0.69537199305211    0.56538337082471
O          -0.64030128051908    0.38709166145032    2.72728005078976
H           0.48650028371143    1.67138495133219    2.74179072716903
H          -0.77545254648843    0.25065013782895    1.76635211254980
H          -0.19121659592215   -0.40931174302807    3.02364509269097
O          -0.17673663041596    1.31092657272204   -2.34831077957831
H          -0.79128362674817   -0.09221585919821   -2.84057353280323
H          -0.78112628810920    1.71527098380195   -1.71992540773029
H           0.56986732809439    0.97558092276314   -1.79549451262649
N          -1.12445257187878   -1.10038791174447   -2.83195773990067
H          -1.14466375754124   -1.51891034216571   -3.75493470758388
H          -2.05043131514656   -1.12005190215142   -2.34749511849187
H          -0.44547590633773   -1.59572186733543   -2.15940070044215
