    26
        -50.46126942  Gyration_radius:  2.53134742003 Dipole_moment: 6.044
 S          -2.21316690996604   -0.43776534971803   -0.39600443761969
O          -2.48189574466554    0.98238399086853   -0.43692890092989
O          -1.88174914552474   -0.93866940937926    0.92996237365757
O          -1.23212146421170   -0.84448778168595   -1.39582594068288
O          -3.57244294032684   -1.16380894559940   -0.78910934705833
H          -3.86191479190529   -0.67790468579224   -1.55498040860558
H          -0.13683552610637   -2.13441688277425   -0.67978427714086
O           0.84028078088497    1.66266369757579    1.18112205546712
H           1.18999973853947    2.48416742416419    1.52827954163382
O           0.12393897085632   -2.40596120057425    0.21946267674909
H          -0.63672637023767   -2.05178290624254    0.73262216555930
O           0.54062615021226    1.12224164097273   -1.61956640683435
H           0.50129733613793    1.49861516116559   -0.72949300732624
H          -0.17120332814037    0.45048573744922   -1.65133566646011
O           2.86420204418352   -0.07093466813575   -1.70661638846948
H           3.51313596890640    0.56813932708253   -2.00270623188400
H           1.97371565088128    0.35907110545724   -1.83635990517907
O          -1.60854000039283    1.47895537871006    1.96867720854219
H          -2.04518630305324    1.63027106561022    1.10462948337353
H          -1.73006516283381    0.52054367511534    2.06729455827320
H          -0.10593695589825    1.60193164087945    1.52294175681184
N           2.04510773162538   -0.72728819837083    0.73008431158485
H           2.52301174130020   -0.54770129092587   -0.19114675503113
H           1.26734735537692   -1.46418356407834    0.54988746691397
H           2.69808523017636   -1.06045777103987    1.43030355464534
H           1.59703595420939    0.16589279926356    1.02459050002401
