    26
        -50.45831097  Gyration_radius:  2.61298032616 Dipole_moment: 7.257
 S          -1.46661288806309    0.29250010994016    0.66673856420393
O          -0.92380935265549   -0.50717898910620    1.79336490415751
O          -1.48435199786550   -0.48830915582764   -0.54333245646368
O          -0.71606577218263    1.53070522143382    0.53507964953528
O          -2.94073547712551    0.64682931776783    1.03895576295161
H          -2.86758585814352    1.01439240338074    1.94087250611921
H           0.79168492470664    1.44362084851865    0.23953030715871
O           1.78416476243469    1.31324126551016    0.12134402908964
H           2.18858023695538    2.00004796767248    0.65461970734449
O           0.32320910898661   -2.46475495154098   -1.53123333236185
H          -0.59579042581289   -2.54728785012276   -1.25515611595973
O           1.83661734588487    1.52281907492090   -2.62170283022342
H           2.69069639173702    1.19161146406812   -2.90306993750333
H           1.83794491310803    1.53223135397964   -1.64792217686181
O          -2.16588731904206    0.98943142909713    3.55963858809940
H          -2.64553189198166    0.43353051415495    4.17779273351267
H          -1.53183012991082    0.40620221027978    3.09483546056323
O          -0.16549482415204   -0.33523503641790   -2.94242901723841
H           0.27600325522227   -1.73108691253013   -2.20738017185353
H          -0.80294616987497   -0.15516159352263   -2.23223035269001
H           0.47136957570382    0.40196611594540   -2.93426157581310
N           1.24935157926001   -1.31000349730098    0.60844763561689
H           1.88209577141967   -1.89572528049566    1.14340350066537
H           0.36787435547699   -1.08447873653051    1.16399304900356
H           1.67979979935540   -0.39304234642190    0.38318932144383
H           0.92725008652600   -1.80686495686817   -0.30308774249538
