    26
        -50.46126940  Gyration_radius:  2.53133594992 Dipole_moment: 6.044
 S          -1.44918254755895   -1.75969497350646    0.22423835781642
O          -2.55987448235461   -0.87166000059169   -0.03744125431157
O          -0.80412153628252   -1.53647619208764    1.50993518323579
O          -0.48877667347564   -1.78308483459783   -0.87330766192308
O          -2.05734836948593   -3.22662339484319    0.31107771042113
H          -2.62959453183634   -3.26735101478316   -0.44879766764604
H           1.21269369441309   -1.87867696896295   -0.18701152742422
O          -0.34428021254260    2.09577298115739    0.59564767099145
H          -0.57756846800915    3.02104284226904    0.68020656610306
O           1.63486210901714   -1.65508244694638    0.66279092234948
H           0.85163741638919   -1.68743800131941    1.25682890165104
O           2.16028321057434    1.13173135708809   -2.27448993181230
H           1.19398896081645    0.88483120503996   -2.27766030735227
H           2.23867454071776    1.90430301654582   -2.83498662866903
O          -0.38330579390013    0.66892729388046   -1.89196699535966
H          -0.50717204962687   -0.26428529550407   -1.62233691693629
H          -0.60462915855131    1.19509035285021   -1.11118124973635
O          -2.07225930428065    0.74307795690253    1.95028812306673
H          -1.55217303311971   -0.01445343235719    2.26444994308887
H          -1.01640170296213    1.59209883848752    1.15280045250708
H          -2.55150847030305    0.33613595308670    1.19870584143535
N           2.07734264712292    0.89168889256988    0.36645747264146
H           2.28198675856483    1.03123015491317   -0.65722866677286
H           1.93602626636963   -0.17406421922612    0.52312974988782
H           2.82991324161915    1.24191469380089    0.94841527305120
H           1.18078746867558    1.38104521614069    0.57143662969982
