    26
        -50.46507298  Gyration_radius:  2.5535111263 Dipole_moment: 4.274
 S          -0.61084032258434   -0.45547083949949   -0.64926466838846
O          -2.03633391391381   -0.75093708727580   -0.56673639938263
O          -0.30831082529789    0.02985341393415   -2.08984236228767
O          -0.27843891499086    0.65216835222356    0.25732083685767
O           0.21811087767349   -1.61912633259426   -0.36786235212750
O           3.43326098191184    0.58086306537997   -1.43456537432525
H           4.09922862588210    1.03175815742601   -1.95564340652125
O          -1.94091163204258    1.74221813597013    1.99354964195059
H          -2.43149766658757    2.42534954418168    1.53402413411286
H          -1.24440602758578    1.44205893490918    1.36393458952381
O           0.12596765569169   -1.49693516398253    2.23735649717690
H           0.59108136600419   -0.66987516530000    2.38978681825198
H          -1.45850327895052   -1.21920652161928    2.25489373437153
H           0.24777541186523   -1.67734685177681    1.27391786322753
O           1.31756634179248    2.20663080542893   -1.17933710324609
H           0.76393393515142    1.70332243575942   -0.54653308648411
H           2.72543710764058    1.24175892503625   -1.25582610092173
H           0.85571182354037    2.12977625373903   -2.01873079721725
O           1.81871401115406   -1.29101737288178   -2.46999105667483
H           0.52651964529968   -0.47558232372444   -2.38267560050240
H           2.52115666037430   -0.68771168807524   -2.13545278128216
H           1.52947265805637   -1.80464285517692   -1.69901052659195
N          -2.41971882235700   -0.86909663998905    1.97007696605220
H          -2.46533199215450    0.14816786473368    2.20623414262302
H          -3.17459210359691   -1.41037092272538    2.37587292270835
H          -2.40505159197368   -0.90660614405931    0.89450344911329
