    26
        -50.45420234  Gyration_radius:  2.65151276638 Dipole_moment: 5.904
 S          -2.42477684520876   -0.17525546455489    1.54980273521471
O          -3.21985463394359   -0.03651643947359    2.72524998326430
O          -2.81295770543813    0.68973689341005    0.43492375188900
O          -2.67901007963754   -1.68310889826863    1.02047439851520
O          -0.97670099817226   -0.11257328724327    1.73705059362793
H          -0.40527354092398   -1.16341063437472    0.66373144751212
H          -3.56410833991833   -1.82141290064261    1.33952353784699
O           1.26365694004069    1.19922857220824    1.09974652254265
H           0.52235736436437    0.89863186280682    1.65364779085357
O          -0.07084663865578   -1.80436367080287   -0.01589748277835
H          -0.72262546654250   -2.50832412670231   -0.01095920293262
O           0.25492564562630   -0.39652877071753   -2.30452525349661
H           0.14945410750162   -1.04799624686435   -1.57989432358945
H           1.17458443777117   -0.09820687451277   -2.27056958742436
O           2.56804175190160    0.97446660794556   -1.50086920111687
H           3.31736366581542    1.51585696127349   -1.75083866705652
H           2.26832193614896    1.28715348727451   -0.63522813477900
O           2.53365717235760   -1.11554015583211    0.53557909369967
H           1.69350237287821   -1.59042179520145    0.42142329134747
H           2.86470166314942   -0.93395396714287   -0.34925763893419
H           1.82557270879056    0.39255852468333    1.04974349330821
N          -0.70857712317244    1.52934978169169   -0.77476008525905
H           0.06031494085270    1.52123619170410   -0.06664757831492
H          -0.45009382081409    0.82842196505792   -1.52665385251126
H          -1.61296916889265    1.19415090566887   -0.28503080296796
H          -0.84866034587669    2.45682148860283   -1.15976480845922
