    26
        -50.45420191  Gyration_radius:  2.65137416346 Dipole_moment: 5.908
 S          -2.65766782511136    1.11425005003554    0.07885222727601
O          -1.81008109369262    2.30450351049831   -0.00376733803057
O          -3.99672607619845    1.29550366000731   -0.37618235537053
O          -2.76891921516604    0.78638960376996    1.65955124701249
O          -1.93981603081451   -0.03697612413183   -0.46449294120606
H          -1.03856623990743   -0.54542324740134    0.76521028873402
H          -3.56439007058308    1.26308933147661    1.87002416004049
O           0.18688131814344   -0.83038359961461   -1.87643661809434
H          -0.74875880467851   -0.64536435767820   -1.68396867469867
O          -0.47747211592176   -0.83418210954288    1.53094543883159
H          -1.03690206416996   -0.68761276516462    2.29640725338208
O           2.90179207306929   -0.84705589623328   -0.80826031110991
H           2.13515967621636   -0.82615743858463   -1.39887665366272
H           3.66676569303429   -1.04738793926442   -1.34838496330724
O           1.82848164492747    0.57243946059686    1.36199239534803
H           1.04582476065731    0.02705130658503    1.58712293364711
H           2.41477818061636    0.00549208593610    0.84171646164200
O           0.79136395224556   -2.70737128087567   -0.03231819530944
H           1.71317224281870   -2.49902690758321    0.14757170465199
H           0.27000286931227   -2.25504229003880    0.65174704130380
H           0.35398094883104   -1.63694466561326   -1.33747409017479
N           0.56341467147965    1.62007117711432   -0.70671480857030
H           1.01034375630748    2.34600923865737   -1.25567535338405
H           0.46415685241506    0.73423587343495   -1.25258958131873
H           1.12020455491232    1.39034203372263    0.16547768147346
H          -0.42702364872943    1.93955128988600   -0.41147692910732
