    26
        -50.45954248  Gyration_radius:  2.65389640705 Dipole_moment: 3.180
 S          -1.98577457727820    0.83546523530745    1.39825961786351
O          -1.50941031016363   -0.36394552662623    2.04188425190910
O          -2.65897855531456    0.57595983622810    0.13014524526108
O          -0.93605013734852    1.84157592235433    1.24540321854204
O          -3.08227286252975    1.47230170546434    2.35352383354987
H          -3.53116730371836    2.10104924908965    1.79591919247277
H           0.14785603270986    1.86164157615429    0.06879368783853
O           0.73487690892936    1.76722822048852   -0.72894978753136
H           0.59473047632646    2.55783123556316   -1.25191963896267
O           1.18244135166971   -1.69135702009414    0.75427883475059
H           0.97496015056070   -2.48212373142759    1.25418592654630
O           0.59341057027134   -1.53062319333608   -3.18956560861888
H           1.36200797098723   -1.16375358133971   -2.70069314044377
H           0.93648981505623   -2.21245116192711   -3.76658408796872
O           2.41655253085574   -0.49231103866281   -1.46894416613660
H           2.15848683969147    0.40654657885307   -1.23083480854606
H           2.24524277790946   -1.02709443618259   -0.68046819196971
O           0.99010723839940    0.21136674455071    2.54801478465418
H           1.00177468401521    1.12128235373846    2.23773051107192
H           0.03432025446895   -0.01584817250826    2.57329879176595
H           1.23277811121778   -0.96261414573395    1.43037613997171
N          -0.60338241319576   -0.58370095729765   -0.97326587422520
H          -0.09468037070619   -1.13916269489036   -0.25010851861011
H          -1.55569400805579   -0.29371476187869   -0.62654692508623
H          -0.06065391726322    0.29802116946122   -1.09481679260673
H          -0.58797126750678   -1.09156941534639   -1.86911649549036
