    26
        -50.45954224  Gyration_radius:  2.65399504112 Dipole_moment: 3.180
 S          -2.30379206904151   -0.16540222790998    1.12452788602326
O          -2.03812901564005    1.24046478883377    0.94361410680486
O          -1.47256689290458   -0.77730963074668    2.15575854349057
O          -2.22946364205703   -0.91295621371152   -0.12971046116007
O          -3.80096028056521   -0.29451224105005    1.63658972190728
H          -3.84818144128477   -1.18357723136232    1.97578990973491
H          -0.87751428783358   -1.44338614815327   -0.80082396041467
O           0.02952235777724   -1.73705267552981   -1.08530450755034
H           0.00253609925550   -2.69482490059130   -1.09745901436466
O           0.70638127875754    1.96932852392801   -0.67279721187215
H           0.60818631247697    2.86387466274821   -0.34355558973268
O           3.45033174790532   -0.49866209738852    0.84343043707500
H           4.36302228612357   -0.22326525886783    0.92605383690125
H           3.21351371628170   -0.40468258813279   -0.10497443025849
O           2.37269775558947   -0.09041599033129   -1.61295266206876
H           1.65392533512068   -0.71790991259759   -1.75741722871237
H           1.94357507423035    0.76715753588824   -1.48089955275918
O          -1.67050538642615    1.42766163332893   -1.63800179597103
H          -1.97729846086977    1.48646473417449   -0.70622850672362
H          -0.14436846987689    1.77385257054506   -1.15099861279067
H          -1.85713080794413    0.51718001986998   -1.88417165586673
N           0.78416773419085   -0.17223807444914    1.00283282424038
H           0.68337200984299   -0.87488974203979    0.23940687328196
H           0.69639718527047    0.76367382979326    0.54821948628762
H          -0.01592383295589   -0.34684834918705    1.66652801881308
H           1.72820566462969   -0.27172502714710    1.40254355563622
