    26
        -50.45896707  Gyration_radius:  2.62390860215 Dipole_moment: 3.348
 S          -1.93119914699976    1.07462454242343   -0.14859131121136
O          -1.57931245686200    0.49552317991003   -1.44368846859031
O          -0.79875163147349    1.70243661841476    0.49360888103559
O          -2.61741067698698    0.10997921650268    0.69568267693267
O          -2.98029307087644    2.22379394787927   -0.45041912598446
H          -3.69686857943117    1.72221596285246   -0.82406254691982
H          -1.76332629266758   -1.10008099312246    1.24853721293304
O           1.89299174249784    1.33291310402540    0.56124792212591
H           1.09702138711589    1.87638712917095    0.44022185049304
O          -1.20682933241952   -1.84141771017959    1.61576340075360
H          -1.77011541574821   -2.30835545205893    2.23509903150384
O           0.10660389630370   -2.86775009815708   -0.48701862826086
H          -0.31874504918896   -2.58139400725189    0.34963115874165
H          -0.60476401377064   -3.16695397410711   -1.05634368630391
O           3.14193417986882    0.98432890726810   -1.99203823731477
H           3.85195644128280    1.53498581367899   -2.32314343783318
H           2.97453540834814    1.26441833137015   -1.08099661902359
O           0.39902759004160    0.27273444248069    2.51664563004082
H          -0.19537931917738    0.87240652306055    2.03580060483777
H           0.01966528975572   -0.60690555942898    2.38127397084838
H           1.72857925120091    0.90839185442947    1.42721735994360
N           0.85841480401354   -0.39431189199536   -1.25087412991264
H           1.47524115546890   -0.25486330863211   -2.05188277941516
H          -0.11121888472021    0.00405422228580   -1.42763360310812
H           0.74683947770231   -1.40374195460519   -1.00617310803746
H           1.28140326676973    0.14658114376734   -0.45786399827245
