    26
        -50.45896697  Gyration_radius:  2.62331912753 Dipole_moment: 3.332
 S          -2.10579641877002    0.49812541709791   -0.46303241507343
O          -1.74529744656769    0.00596675278952    0.84724344793217
O          -1.53961972072854   -0.31962781499955   -1.53408055190752
O          -1.80750828596006    1.90794393988699   -0.65697924616014
O          -3.67970355800091    0.35735519964985   -0.58683890033250
H          -3.82940028638062    0.73550265890364   -1.44665974610800
H          -0.30442234130836    2.36009381458786   -0.46826196868845
O           0.64139675141742    2.63716635610815   -0.31726656156679
H           0.64368792744482    3.59454354084386   -0.36600022575042
O           0.36001178654976   -1.30238018453349    1.96447622359949
H          -0.58715157670841   -1.18700349424797    1.78325966372678
O           1.27036945889925   -3.59561072833087    0.51059473451222
H           1.31973053767791   -4.47900113031424    0.87660674458859
H           1.02233715474945   -3.00684675384825    1.23748009029405
O           2.12402763996057    0.92779546409940   -1.75936617421949
H           1.81032086036200    1.07761100820494   -2.65314753845175
H           1.68962840995550    1.60904409164717   -1.20256100380655
O           0.25673856190292    1.36779320252274    2.15244488556066
H          -0.61943448626493    1.09968084358480    1.82894771952764
H           0.61914405207915   -0.42078502703124    2.30072998497044
H           0.63093194377551    1.89604404029819    1.43351726731333
N           0.78087832225693   -1.15920758584168   -0.70800544788128
H           1.45836460123439   -0.46410258792934   -1.09417964996360
H           0.73224375200500   -1.10482895355735    0.33837124659027
H          -0.18213546153281   -0.91470477868731   -1.08593740769726
H           1.04065783193864   -2.12056728092724   -0.93135518102005
