    26
        -50.46725636  Gyration_radius:  2.60250805901 Dipole_moment: 3.996
 S           1.53064571871763    0.12125243082336   -0.56104068103155
O           0.99717754367150    0.19250581508392   -1.91535160225548
O           0.96635348408523   -0.98707171746048    0.18256303869627
O           1.32362454378731    1.39903165199295    0.13578595371933
O           3.06785783836991   -0.11601449820787   -0.64694725147150
H           3.42471352507106    0.74353778418805   -0.94990151454646
H          -0.25523666046368    1.64294883225519    0.29795996535545
O          -1.24166929181578    1.72404611110141    0.37594325437689
H          -1.42705082963144    2.66198677940983    0.44493623945464
O          -1.20153160617879   -2.48340539606273   -0.45915311364943
H          -0.29798930347158   -2.20733990536196   -0.21813112085266
O          -2.34828740333552   -2.22096361215897    1.93093827263303
H          -2.18869493270875   -2.91057498919273    2.57655616254040
H          -1.73962668086933   -1.47808554445629    2.16845053580806
O           3.44557233479736    2.48302203606365   -0.96282484899044
H           2.57042705033114    2.34173251075597   -0.54766926576667
H           4.00846336760401    2.87025774452240   -0.28847634905437
O          -0.56859863899622   -0.28737794348170    2.28518417437424
H           0.11170523613340   -0.56530089300491    1.64188127155546
H          -0.95316619908522    0.51348589781770    1.90798975989842
H          -1.70566354555664   -2.50033078929484    0.38886196296949
N          -1.54021233599330   -0.17727773238785   -1.57440370211494
H          -1.72995534290123    0.52558783216718   -0.84020379630287
H          -1.55040844981143   -1.17729374534133   -1.14840173271549
H          -2.17535638983521   -0.08541348074539   -2.35924827204349
H          -0.52309305192072   -0.02294516902531   -1.86529734058145
