    26
        -50.46725632  Gyration_radius:  2.60251857888 Dipole_moment: 3.995
 S           0.52863152778420   -1.53565129045011   -0.18770191196696
O           0.82694600488158   -0.64631426525611    0.91674504913065
O           1.20126379819793   -1.12244860638698   -1.41264834983453
O          -0.91956042711226   -1.64676367090034   -0.41443806573802
O           1.04595127315978   -2.95092954402563    0.20718819628238
H           0.63330217472598   -3.54681878776695   -0.45049772096216
H          -1.49599708741326   -0.18848847593505   -0.76146860609744
O           1.97468169950288    1.80790970735660    0.80698448534693
H           1.78070922809324    0.87913045599799    1.03146468278783
O          -1.78697185993309    0.74064534674553   -0.95556448585472
H          -2.58781253961104    0.66540250252955   -1.47693795284079
O           0.10644897555323    2.97704910871293    2.30292175908914
H          -0.49969924719170    2.20268790584344    2.19384905594605
H           0.27547852805629    3.05052195558390    3.24305331732758
O          -0.69636065359376   -4.04466707576114   -1.45587764828697
H          -1.30291352851949   -4.65221484970466   -1.02625004711331
H          -1.00109105920776   -3.14179629138627   -1.23187163515521
O          -1.27437458255070    0.75913305200829    1.85138455479973
H          -1.73254009586966    0.88648896648793    1.01148432060582
H          -0.54346912706275    0.14438198659114    1.64695538240593
H           1.37848628418078    2.34625492800038    1.38010066484020
N           0.81351028138544    1.43440017013226   -1.47077886539075
H           1.10471445745033    1.97281576582749   -2.27894441039986
H           1.05808570676026    0.39870129529992   -1.57304820156876
H           1.32340101088690    1.74358945411239   -0.56180952307578
H          -0.21082074256299    1.46698023633992   -1.33429406427500
