    26
        -50.46507288  Gyration_radius:  2.55385377775 Dipole_moment: 4.282
 S          -0.42173896729258   -0.90255875903198    0.08644982351926
O           0.59849839079451    0.00354008064588   -0.45896014780844
O          -0.82122720039791   -1.86713346828492   -0.93148313322756
O           0.24033738511890   -1.68496655566976    1.24920518712447
O          -1.55005053718301   -0.14996272091058    0.61639079557430
O           0.96825758349955    1.44611991427705    3.34280229052155
H           1.51833835534278    1.55989124941974    4.11923431357043
O           1.37446684126683    0.07597757379585   -2.98085941439877
H           1.19316896276076    0.11833443698831   -2.01290209103621
H           2.07494006876206   -0.56932023312967   -3.08758647723445
O           2.40696380573752    0.17545658615568    1.47185884419941
H           1.55487361723030    1.09078193788297    2.63612208894930
H           2.39287564051104   -0.74533515743250    1.74705478903067
H           1.80023398721824    0.21192909244166    0.70322698304206
O          -1.72143234056615    1.61701505729468   -1.29706325981217
H          -1.78670312741744    1.02243821994585   -0.51117411407205
H          -0.88507501031232    2.07685260428841   -1.18393046825992
H          -1.55735847208906    0.51033993364104   -2.45330177220463
O          -0.88485142050939   -0.48227460184125    3.17278250312982
H          -0.17296004036209   -1.31362320740277    2.10339618932462
H          -0.27545304034420    0.26951586586262    3.35429416560744
H          -1.49856677615071   -0.16035427203433    2.49337502154750
N          -1.24417572698724   -0.36306803933631   -2.96971226610187
H          -1.87719736390298   -0.63153667083169   -3.71447825531193
H          -1.16102872979015   -1.10879400056633   -2.19790502575230
H          -0.26513587493336   -0.19926485618048   -3.29683656990020
