    26
        -50.45919003  Gyration_radius:  2.47703933166 Dipole_moment: 8.346
 S           0.17597473783932   -0.03100159558964    2.23480875482024
O           0.61956629362837   -1.36302253038264    1.95607578843196
O          -1.28600478068255    0.09332912543533    2.29512009678322
O           0.71372444940007    0.97534832356653    1.31679150126569
O           0.69229465920218    0.36161614099169    3.67556544955392
H           0.24296511317722    1.18492883232359    3.83450558148370
H          -0.16940599811632    1.76334077772231    0.24073446650585
O          -0.76139038089805    2.17799359529867   -0.44345904021977
H          -0.65626773229265    3.12574275972534   -0.35328124354884
O          -0.62343622838949   -1.62987669515688   -1.65729902155027
H          -0.90338100312570   -2.45280572332231   -2.05917767792114
O           0.55562374297160    0.82150373978758   -2.51498167014131
H           0.06193875508211    1.39962735753663   -1.91502369542618
H           0.15614061581012   -0.05512501624205   -2.43502259647743
O           2.53609722741491    0.30178991513505   -0.66490679598013
H           2.03500800679409    0.61113586565298    0.10642589011065
H           2.02479153744762    0.58490811558782   -1.44606310020770
O           1.52974159325331   -2.13992644180803   -0.42516287382435
H           0.25766065230034   -1.85290457388926   -1.16983491794334
H           2.09662640718864   -1.34811098416979   -0.59417968057499
H           1.27012838115940   -2.04237378085493    0.51048260435411
N          -2.13808734885665   -0.10989978905999   -0.11038955902802
H          -3.13276915410007   -0.29040419952833   -0.19557392981306
H          -1.57078684446780   -0.79968159642222   -0.68304559774733
H          -1.89914806982243    0.84434430800205   -0.43018326085781
H          -1.82760461191829   -0.13047592034243    0.92707454795185
