    26
        -50.45896672  Gyration_radius:  2.62402728417 Dipole_moment: 3.353
 S          -2.17868987390537    0.30351193443126    0.26589469764398
O          -1.90657825316274   -0.22739270939554   -1.06849826212579
O          -1.24998567009708    1.34678879713087    0.63755635787017
O          -2.28094496060233   -0.76163004629002    1.25044896314048
O          -3.61261880567399    0.97442538039803    0.18861294515806
H          -4.15488031065911    0.22106086104479   -0.01892528053312
H          -0.95206551898771   -1.53555346809015    1.61670914018218
O           1.34590090643371    1.96160904176893    0.11803831255490
H           0.39970963563354    2.17559640521837    0.16812833612687
O          -0.10193580882704   -1.99538416670459    1.86169891961440
H          -0.31998208474981   -2.57338065073320    2.59469864482973
O           1.04715152056367   -2.67523416769822   -0.46587253099231
H           0.72301613346547   -2.48398437424003    0.44033744149485
H           0.39646094793463   -3.25772207967768   -0.86210795027042
O           2.10129143843883    1.84725171925115   -2.64207036940946
H           2.02664528933292    2.13226459910916   -1.72028122021364
H           2.48615866896212    2.57862133178191   -3.12569916622397
O           0.76561038916651    0.62259787926361    2.36487969492655
H           0.71488201212716   -0.34276424907605    2.32595718166839
H           1.52419131431808    1.58617395760133    1.00376064917510
H          -0.09012635932252    0.92688989299441    2.01955234295705
N           0.67349102762837   -0.17580674344373   -1.40392925637396
H           1.01891251053159    0.54912945435792   -0.72897745474199
H           1.02360289765121    0.09985219611149   -2.32205297345679
H           0.98967115240272   -1.13278169753648   -1.12912116789882
H          -0.38888821861872   -0.16413908763328   -1.36873801512467
