    26
        -50.46507305  Gyration_radius:  2.55384807156 Dipole_moment: 4.279
 S           0.15183262026644    0.34352089395058    0.92665020745305
O          -0.23893278355484    0.53543050393668   -0.47681882299269
O           0.88448229216346    1.51197718005101    1.40005887588655
O          -1.15581690504476    0.23549102913758    1.75177524621777
O           0.90586944611365   -0.89171842888450    1.08814567292114
O          -2.39786819323186   -2.90507473070053   -0.06911705645597
H          -3.25630149199605   -3.33099810586210   -0.06400704654038
O           0.52525710694278    2.54835528842190   -2.00346086373790
H          -0.09054775200726    3.26884555640448   -1.86154393418321
H           0.14743655799891    1.77374072407275   -1.52503189014546
O          -1.09820333658600   -2.25913088333682    2.18410733364574
H          -1.22729348458360   -0.74186783575346    2.03081213696358
H          -1.57620636287610   -2.63242961373578    1.40854825079737
H          -0.16983894458385   -2.19318324204925    1.90896086669477
O          -2.75501117938798   -0.29520039442177   -0.56497881197057
H          -2.54821536837903   -1.98018820400816   -0.37203526876770
H          -3.04303267986218    0.06897062950477    0.27657539213807
H          -1.82937537732368    0.01143239879209   -0.66202344844879
O           2.38569604716610   -0.68549167060151   -1.05164071215501
H           1.90970044623172   -0.89824754890303   -0.21274182985556
H           1.71390688291729   -0.75388437172838   -1.73553989893637
H           2.70799372450248    0.86811265460951   -0.78504608353548
N           2.59455471508936    1.87903562373243   -0.48061350648564
H           1.98213002627292    1.82041555236378    0.40262744948931
H           1.99802987463783    2.35621511739979   -1.19415979914077
H           3.47975410910229    2.34587185757740   -0.31950243882335
