    26
        -50.45091438  Gyration_radius:  2.53758915181 Dipole_moment: 7.480
 S           2.18589088155142   -0.94971390247082    0.62527644628122
O           1.25235267289938   -0.09137112152712    1.36777970260908
O           2.57013236151166   -0.40859683562969   -0.64490996920408
O           1.66244945385343   -2.31037489289945    0.56580640032635
O           3.49509435658096   -1.02055619496751    1.51894038185295
H           3.19865698414649   -1.45095606519614    2.31497480336993
H           0.55130445549269   -2.24238683889826   -0.54183943782000
O          -2.58768029397729    1.12504942729682   -0.52151310681180
H          -3.44589034217894    1.08754605400936   -0.94342425801694
O          -0.26320071697022   -2.14242868170122   -1.10962720174299
H          -0.27625097645997   -2.90439437026716   -1.69090796477532
O           1.10400800750167    1.80746462077054   -0.76899231768526
H           0.75727216091375    1.80757557580346    0.13517550171570
H           1.77918038398984    1.10289207282799   -0.77965219436240
O          -0.87663905004127    2.44386273539980    1.25163293251452
H          -0.55973419482306    3.32478378566991    1.04649596306686
H          -1.55352328117561    2.23633590167214    0.59271322257984
O          -0.71220585198836    0.47365020630742   -2.15276505571775
H          -1.90564185561815    0.92877835799465   -1.24054553699066
H           0.00976991372229    1.04372994446036   -1.78564081830025
H          -0.44281897204144   -0.43603331999604   -1.96039556579768
N          -1.21419749136995   -0.68921061135621    0.95687034508497
H          -0.21098186058558   -0.34069909887955    1.18060457211466
H          -1.63139022345817   -1.07927816314961    1.79461156083944
H          -1.79332894194142    0.08852526836206    0.57375699266357
H          -1.09262758953139   -1.40419386365010    0.21557462221207
