    26
        -50.46135317  Gyration_radius:  2.58153096445 Dipole_moment: 4.590
 S          -2.53178482816240    0.25663572828612    0.15263712618713
O          -1.82982614664483   -0.53187291540857    1.17073096663080
O          -2.05169724285388   -0.00776608047497   -1.17465829990421
O          -2.53380029376151    1.67240034960874    0.49969549847054
O          -4.05062199560321   -0.20858602108471    0.21890838548386
H          -4.32560882291412    0.10245886759876    1.07637141247404
H          -1.14086967920217    2.03280702878595   -0.08897195763604
O          -0.21721656808116    2.20140316611356   -0.43573300720025
H          -0.27157056881169    3.02473911459172   -0.92425882013898
O           2.17713575184554   -1.03731516409194    1.29592691783143
H           2.67702425762149   -1.21986780284990    2.09221545917795
O          -0.06965050849975   -2.03806399017418   -0.06500064947001
H           0.68705574904131   -1.96177711625296    0.53686296557360
H          -0.82703404546203   -1.61078233246165    0.39665471194587
O           3.18127501772946   -0.47013078590892   -1.14375829285757
H           2.91647133824400   -0.62977244380001   -0.21165105895157
H           3.62314439564292   -1.26881863607200   -1.43589849744268
O           0.38680154312720    0.75327611395009    1.88876912398575
H           1.52791640790851   -0.31627027886835    1.54266338149461
H           0.37386756531784    1.47927507623344    1.25225406652009
H          -0.47345704967631    0.29527678406741    1.76819114264937
N           0.57079069478250   -0.09326664796879   -1.70708448582939
H           0.21368856519699   -0.91418929216285   -1.10784413708274
H           0.14498984943653   -0.16594418658968   -2.62478165786427
H           0.23097866363657    0.78573806023633   -1.25602960265604
H           1.61199796013051   -0.12958659486093   -1.71621071148688
