    26
        -50.46207068  Gyration_radius:  2.65626128044 Dipole_moment: 3.629
 S           1.01525055994738    0.58385987718319    2.34480302508271
O           1.17622230003018    1.13823595930184    0.99882210415554
O           1.49556587300257   -0.77804706490402    2.43683038736197
O          -0.33864416897572    0.75194843055777    2.83891903961503
O           1.96233316380084    1.46158241714158    3.27407973424819
H           2.05035957862484    0.92381190281682    4.05523886060154
H          -1.51726691775645    0.62541237881205    1.78761309675251
O          -0.68009943551090    0.24495531508238   -2.66667759737302
H          -0.97397521419398    0.71214092806952   -3.44945227514374
O          -2.25514166792311    0.54852561385220    1.12195331438402
H          -3.06494500824484    0.59018447718556    1.63272458280870
O           1.54176396829328   -1.34190809437150   -2.77151030833760
H           1.31812925471464   -2.07819999773836   -3.34222479586792
H           0.79188584597576   -0.71413002827622   -2.82020942524134
O          -1.54174859377483   -1.41924015924700   -0.60046859985980
H          -1.91203001140240   -0.78325058695958    0.04380265047713
H          -1.49572157060559   -0.94391899181293   -1.44488533035515
O          -0.73325125606303    1.96025326673916   -0.69958472841228
H           0.05324040958331    1.86409728082796   -0.13046821111827
H          -0.63546401671561    0.93553937991738   -1.94376862479574
H          -1.46476735741316    1.65786502749297   -0.13836538948615
N           1.05796554002266   -1.21552270302289   -0.11932084661745
H           1.53875204180735   -1.43072518191757   -1.01131732401141
H           0.02262505175415   -1.41990384641725   -0.23918916653407
H           1.42774586596504   -1.67831992306055    0.71801112702482
H           1.16121576505156   -0.19524567726282    0.12464470062544
