    26
        -50.46207074  Gyration_radius:  2.65624692434 Dipole_moment: 3.631
 S          -2.27230741810288    0.60140411237244    1.15964943608432
O          -2.87514005844685    0.70119611944240   -0.15204602062396
O          -0.92664773613803    1.17813507389732    1.19606212526140
O          -2.29791424518825   -0.74302443592648    1.70487584579082
O          -3.14402858187918    1.51336020701699    2.12879038647203
H          -4.03690724751600    1.29804986532489    1.87662645774578
H          -1.03771360285092   -1.66298319865680    1.43024080349646
O           2.70662364328112   -0.01252315219558   -0.55441125868021
H           3.63885283127914   -0.00806376467464   -0.33464694141762
O          -0.24110160478921   -2.23682402946396    1.25800001482062
H          -0.47021749357058   -3.10143379041123    1.60202678134271
O           0.58422587960956   -1.67824834694857   -1.26260913930615
H           1.47994548644474   -1.33727549966403   -1.11267976603707
H           0.27621403772068   -2.00958176187641   -0.39538328260417
O           1.73208976257774    1.72075818812237   -2.42853377731204
H           2.16416016235351    1.17644379274884   -1.73874360083759
H           2.11192532726121    1.45103645066703   -3.26570810958519
O           1.39976516702321   -0.06080728074830    1.70481402488168
H           0.62947389407984    0.53716133733302    1.67628205095172
H           1.00533617484636   -0.94687489165835    1.73367086831532
H           2.22514538307631    0.04512809587419    0.32103039116079
N          -0.52994858375879    0.72657285351507   -1.34234558960596
H          -0.18662878422942   -0.27685929665168   -1.40081304614760
H           0.09288075136968    1.31907700087661   -1.92038509267797
H          -1.53225756739123    0.78332305528833   -1.55243609486703
H          -0.49582557709920    1.02285332631982   -0.33132743659731
