    26
        -50.46207053  Gyration_radius:  2.65621144133 Dipole_moment: 3.628
 S          -2.59015364655119   -0.39702905896012    0.04813506255860
O          -2.47347789024222   -1.07823251752487   -1.22316356924594
O          -1.74057834337358    0.79379275629528    0.11815258515761
O          -2.39089220972810   -1.26984924531289    1.19009251771805
O          -4.08193731573296    0.14854437151485    0.13443532802307
H          -4.59631388463208   -0.58980443239353   -0.17773967238704
H          -0.92038980115063   -1.38322850750637    1.76853256024030
O           2.43265202075399    1.28617483660632    0.24652289028781
H           3.06912907782294    1.87006555541132    0.66048839650488
O           0.00549941364932   -1.44830541251113    2.13192595525653
H          -0.03190776406931   -2.12917079785857    2.80530116612732
O           1.68003432700759   -1.38861652500427    0.00125958228593
H           2.19980885901450   -0.58778533680947    0.17317958292950
H           1.13474646714504   -1.52955732831027    0.80096132139025
O           1.93522519401648    1.48203204968386   -2.43306928775926
H           2.73975183206459    1.20787196371171   -2.87519483462458
H           2.14307632538565    1.52222927454523   -1.47702400038287
O           0.31660595164648    1.27255975332927    1.77502551714182
H           1.60506659562225    1.35341255195163    0.80528274899090
H          -0.49964386643330    1.30472822763074    1.24174796446861
H           0.30692345203608    0.38265087876010    2.16164858348788
N          -0.03664216501711   -0.16601308416621   -1.60803624628362
H           0.62685837661256   -0.77240817932306   -1.04223247708922
H          -0.75503729427250   -0.73775757329973   -2.06501649155839
H          -0.60477813849649    0.41050925644228   -0.93267873401115
H           0.52637444690582    0.44318655301707   -2.22853641922382
