    26
        -50.45602562  Gyration_radius:  2.61261099464 Dipole_moment: 5.387
 S          -2.33400775373985   -0.82808613461393   -0.76927583456799
O          -1.37188586431167   -1.26393633903904    0.21011806283826
O          -1.75560630436539   -0.81939406145693   -2.11822386935045
O          -2.96260871153787    0.44405280339930   -0.44972137563970
O          -3.50141325747528   -1.90526031738957   -0.79512485847890
H          -4.16340832788982   -1.50306613362888   -1.35052543684899
H          -1.74945561533878    1.41962012829345   -0.19491728940615
O          -0.94083379840690    2.00369957676808   -0.16430348516685
H          -1.23735288506228    2.87386159988638   -0.43687100956827
O           1.83522290795032   -1.57804382027389    0.19467005829905
H           1.64568252009106   -2.48555952106920   -0.04688086219213
O           0.84410317643307    1.56217253014190    1.91709975767390
H           1.62180819410643    1.50101646206248    1.33846866596548
H           0.10713418746435    1.81051459697362    1.33978402671620
O           2.99396525995709    0.93804226499792    0.22022689985719
H           2.81351849797459   -0.01427502784403    0.24666761650514
H           3.80083501184948    1.07590624828413    0.71848741615001
O           0.37889791691041   -1.07358457337283    2.23317641530581
H          -0.43456021464376   -1.18900760995765    1.71221676877649
H           1.31545617518435   -1.42434809292941    1.05910953458027
H           0.49845634348634   -0.10285564601349    2.32378647557285
N           0.54294594484659    0.11670451941008   -1.45162962386760
H           1.01426479370782   -0.56736713538533   -0.79943544620201
H           0.20000109423999    0.93616663732546   -0.91270850236776
H           1.18703788623522    0.41268931952532   -2.17845290804854
H          -0.34819720766076   -0.33966227409589   -1.84574118653459
