    26
        -50.45602565  Gyration_radius:  2.6127066222 Dipole_moment: 5.386
 S          -2.26301256707256    1.26612438572899   -0.04286004871437
O          -2.27089456977535    0.95068954488478   -1.47632230811744
O          -0.93348221163899    1.57336887846181    0.41839828393945
O          -2.93068190266928    0.23389807672991    0.73455996762352
O          -3.13622844192714    2.58252809725584    0.12531849579873
H          -4.02273720499188    2.28785190011846   -0.06383514364071
H          -1.90696537909173   -0.96624459811396    0.73904025615655
O           2.01167114415423    1.09805409243882   -0.80243850380949
H           1.90645075971054    1.98713970060959   -1.14346130633096
O          -1.26761917788251   -1.72004587346749    0.60118915082093
H          -1.79533434334981   -2.51970954508501    0.63912919948344
O           1.23900642713880   -1.46904920321663    1.77059893562809
H           1.72443033292193   -1.67059767725383    0.95383316529500
H           0.30324130840750   -1.60093072025120    1.55836346906886
O           2.62352809990803   -1.60047671564802   -0.67008761705398
H           3.52301572266001   -1.86671523260770   -0.47428061840707
H           2.63913978139115   -0.63713640615781   -0.77914394639329
O           1.40804969173862    1.21911411783495    1.67785413096365
H           1.38048350953875    0.26734300957133    1.91910561019501
H           1.85453668939169    1.18372829668045    0.20204739110278
H           0.48956736760503    1.46212210103506    1.46866097251164
N          -0.10018429092693   -0.42456916125231   -1.49131471164855
H           0.14383002204539   -0.95618549285200   -2.32111690389765
H          -0.34315454040865   -1.06256181472754   -0.70806352699428
H           0.70193320978362    0.20068067211257   -1.20660534619576
H          -0.97858944666180    0.18157955717460   -1.62856903738510
