    26
        -50.45602560  Gyration_radius:  2.61272576816 Dipole_moment: 5.384
 S          -2.50257951745838    0.28373163282611    0.61892159782049
O          -2.69622124364961    0.56243221467228   -0.80913125521091
O          -1.26544076024591    0.84433022846571    1.09863901830973
O          -2.65908143234249   -1.13223564794251    0.91251638759497
O          -3.68302392351673    1.02720525951425    1.37897038735507
H          -4.45726539973728    0.53079339816466    1.12854334349073
H          -1.33939201400217   -1.78887701722717    0.35039001706093
O           1.38499579728203    1.96285513864676   -0.35706085023617
H           0.95061763579711    2.81319347804264   -0.27898852409649
O          -0.54155031172044   -2.14860790490038   -0.12917597241183
H          -0.78296263165853   -3.03314268620592   -0.40972892392903
O           1.94895416286379   -1.48585231788833    0.90575924909239
H           1.07477827489146   -1.85173041393615    0.70558276608008
H           2.30202732318424   -1.17052977359555    0.05766333969515
O           2.79942911272930   -0.16662756026103   -1.42394779509195
H           3.75736406764375   -0.14678678604657   -1.40728118400824
H           2.50066203955673    0.70108069501152   -1.11091154853205
O           1.27278719011981    0.89886077957830    1.96371424355838
H           0.30156256617937    0.85715358867919    1.92577198296044
H           1.58329724614056   -0.01384180475710    1.77561796637418
H           1.40993430208373    1.59433267536625    0.59406900458437
N          -0.25797849501959    0.17508417330190   -1.52223432611699
H          -1.28788038798398    0.42905426828234   -1.34148157827698
H          -0.03272689287657    0.12833958056011   -2.51107120152837
H           0.35626145048744    0.88526613746874   -1.03881008211508
H          -0.13656815875084   -0.75548132582433   -1.07633607243375
