    26
        -50.45602562  Gyration_radius:  2.61262695384 Dipole_moment: 5.385
 S          -0.11993431372161    2.56402267361041   -0.36993957013805
O          -0.51969386606380    1.66786446995758    0.68456983303886
O          -0.78009287424164    2.22557654255414   -1.63649023671094
O           1.32124962079335    2.67498211768819   -0.53202296413805
O          -0.63483979227287    4.01446958789138    0.02367028418860
H          -0.23187234805325    4.57929181724796   -0.62983094649725
H           1.80744120038273    1.18099118134430   -0.67444917207418
O           2.02732146983873    0.22831935919502   -0.87447518592004
H           2.79923932933004    0.25273970908446   -1.44274623941179
O          -1.97624749368179   -1.20699706579553    0.73148410173884
H          -2.77502800446668   -0.69036416024342    0.84494152514002
O          -0.21203224752217   -3.13196718473531   -0.19364302501525
H          -0.96250968695130   -2.64913771352603    0.18558720747275
H          -0.22021879438204   -4.00359416730562    0.20448381809387
O           1.69026545419527   -1.59732959368734    1.19103644307076
H           1.15661257669315   -2.21279427429765    0.66209071410417
H           1.98147226580595   -0.90809737946484    0.57599423427732
O          -0.31702096694233   -0.32789597160906    2.46502587662770
H          -1.36079952602052   -0.90497765173774    1.48714268495077
H           0.51103920306212   -0.77854884726536    2.18929850451298
H          -0.29381785746081    0.54551509563171    2.03715126001593
N          -0.58718636742541   -0.32608728133919   -1.40106215421276
H          -0.81194241062597   -0.91528546085227   -2.19671515721176
H          -1.13349238273275   -0.63291067348257   -0.55090122820845
H           0.43076426969154   -0.36275146323018   -1.19623531558552
H          -0.78867644723278    0.71496634434878   -1.58396529210377
