    26
        -50.46819120  Gyration_radius:  2.43081119611 Dipole_moment: 3.465
 S          -1.79051125205602    0.02834308492504    0.81162103764973
O          -0.88389777511008   -0.99635488612002    1.28670178577998
O          -1.67884607799016    0.21750629086564   -0.63105904776716
O          -1.67476703331245    1.28765343326938    1.52077645781671
O          -3.25078958784862   -0.50669873129956    1.08745178603138
H          -3.76148751148881    0.29014355070412    0.99604677688670
H          -0.33670517714281    2.12886691867505    1.22323642192750
O           0.53063087238247    2.56656698770859    1.02362713443414
H           0.52589103602781    3.39478241285401    1.50565865149101
O           2.33737927320615   -0.80254050079616   -0.41454195528681
H           1.76888375550633   -1.58661445717797   -0.53070973248404
O          -0.39771470159760   -1.01359918490303   -2.81610348468472
H          -1.14581039563181   -0.67150797671624   -2.31345779869838
H          -0.05756753273084   -1.73941727479794   -2.27943163409487
O           0.26880135072337   -2.57022558069448   -0.49445384728608
H           0.25037390563857   -3.45983438311980   -0.13874978265067
H          -0.22374572220029   -2.00961274826519    0.14708540854373
O           1.52103196381685    0.07160627672416    1.95669057561493
H           0.64885042979778   -0.35740124138007    1.90504261363835
H           2.25539908596975   -0.56350775271418    0.53876187096264
H           1.35724730083321    1.01413126871571    1.81450675598005
N           0.75499619698341    1.07775698844514   -1.25513021313982
H           0.83994098619705    1.31460026043977   -2.23897511672073
H          -0.21544549575181    0.70661888127433   -1.07724583149285
H           1.46663086281752    0.29577089253335   -0.99806176321994
H           0.89123125294765    1.88296748083364   -0.62928706925036
