    26
        -50.46207083  Gyration_radius:  2.65607567983 Dipole_moment: 3.639
 S          -2.40357144541531   -0.64522080357695    0.82117362667633
O          -1.05252284207305   -0.88506206023056    1.33350068557224
O          -2.62709095292596   -1.29030178716617   -0.45450528622262
O          -2.73696225322483    0.76699916182069    0.81963286639248
O          -3.37633655599315   -1.35211809705058    1.86278255382990
H          -4.19321050691568   -1.41947889549065    1.37768865401703
H          -1.57348017564534    1.78616582235303    0.47702635132637
O          -0.83721310257336    2.42383227059854    0.26528296225157
H          -1.25350535788406    3.28529547267823    0.21055299674146
O           2.73401290899021    0.39596934399337    0.03336405652569
H           3.56922288772275    0.66039467049620    0.42049636867196
O           0.68001876765725    1.25016955506249   -1.64971653963710
H           1.54054085381296    1.17328630842262   -1.20851828996382
H           0.11736497823259    1.77642348871483   -1.04702624862809
O           2.50709518951656   -2.02226492319717   -1.21727530059500
H           2.67239449625724   -1.20298839292747   -0.70705480311537
H           3.05615755076546   -1.97046124984748   -2.00068987779063
O           0.88642739661948    0.91043533888777    1.80389776434404
H           2.05132329780799    0.53034104176561    0.75276841907735
H           0.39163168750367    1.65350650262020    1.42377057897347
H           0.23090373049340    0.18895717313965    1.84367827468592
N          -0.06631720045755   -1.22430918355855   -1.05741841328579
H           0.15263820475043   -0.24727232780167   -1.41191622646384
H           0.75661827957155   -1.82815525321843   -1.23491579959329
H          -0.26543834612148   -1.15706441650663   -0.02420092636500
H          -0.96070150045792   -1.55707875991739   -1.43237844744141
