    26
        -50.46507297  Gyration_radius:  2.55424120957 Dipole_moment: 4.285
 S          -0.14983635272039    0.76940980777127    0.61827340106970
O           1.05681614354321    0.91680380317894    1.57983857324062
O           0.36410223586198    0.19564941317592   -0.63307742375280
O          -1.12598447882584   -0.12031827231630    1.23135572126265
O          -0.68724830723346    2.10148829617844    0.36733015684057
O           1.82796643247165   -2.83840051373468    1.67892646468825
H           2.59325287102801   -3.30670993970015    2.01555443637281
O           0.08734852240902    1.27521350607328   -3.02562172403238
H           0.81513893084154    1.88529931758521   -3.15415007320097
H           0.28314540280480    0.79599856726055   -2.18674251135275
O           0.51343947991641   -1.00956874025942    3.13110151124963
H           0.96816151283539   -1.77307664251757    2.70711632582263
H           0.92824984726688    0.20444403737476    2.29698699052643
H          -0.36587017587979   -0.97198960302645    2.72207732525005
O           2.68505666073772   -0.88261194498899    0.05883855535802
H           2.16320418136693   -2.21107243455748    0.99783704317042
H           1.84003239260229   -0.54931359493062   -0.30874861607991
H           2.97722572944017   -0.19041462131843    0.65831505383579
O          -2.39308529448318   -0.80534813808183   -0.94540094106655
H          -2.02282576963384   -0.63730191905550   -0.04535130401771
H          -2.44364224851171    0.70539089251897   -1.49709884895861
H          -1.69949721055330   -1.28438543541814   -1.40719327568051
N          -2.16798970709882    1.71167134108062   -1.69417991803766
H          -1.44742639559174    1.69651736321884   -2.45111008710749
H          -1.63812652766922    2.01722719662087   -0.80834035410354
H          -2.96160787490359    2.30539825789564   -1.90653648138417
