    26
        -50.46968890  Gyration_radius:  2.43247691536 Dipole_moment: 5.593
 S          -1.66608776964981   -0.03803172721291   -0.46258751112927
O          -0.91813431310688   -1.23717525437674   -0.14713234175828
O          -0.82445445798247    1.00389606100354   -1.03622060011472
O          -2.46042420245851    0.43139201902234    0.65239961707285
O          -2.68914023313992   -0.41971141427553   -1.61545915100183
H          -3.41026318905928   -0.79634989020325   -1.12277193326421
H          -1.42808647702347    0.94886996614187    1.78785848224840
O          -0.74752836165551    1.24478251089280    2.44379138816305
H          -1.23511459367609    1.64583459098700    3.16540113768835
O           2.59022624743587   -0.51874444670451    0.62931923317684
H           2.34571901064500   -0.97688697961410   -0.21352317079154
O           1.42101833595772   -1.63156182969982   -1.45982760954428
H           1.20135668631339   -1.17453992275240   -2.28721113411991
H           0.57331125001668   -1.67936981664766   -0.98436887198598
O          -0.08961576504138   -0.22799784443340   -3.29865837549622
H          -0.87916586534249   -0.67656295277860   -3.60586183798072
H          -0.37402631999275    0.32269097275503   -2.54853836274945
O           0.52833241347762   -1.27288399235753    2.15322688305933
H           2.04092463739677   -0.96521661862876    1.31263644252475
H           0.14346052231459   -0.48561181875228    2.55886888752049
H          -0.03129468739155   -1.45402809119110    1.37789592798920
N           1.19488850089263    1.62180236000207    0.54185591220134
H           1.87933911659157    0.74173356674169    0.56469028821772
H           0.67433285671174    1.66715541038551    1.43129398890023
H           1.69184465034895    2.48605846463112    0.35732158254102
H           0.46858201740685    1.44045665707858   -0.19439890136570
