    26
        -50.47250305  Gyration_radius:  2.48721200327 Dipole_moment: 2.878
 S          -0.18920449642111   -2.10375444760983    0.82561640419632
O          -0.72411183618045   -0.83979484946449    1.29451638135148
O           1.26687213668311   -2.08784050292949    0.75776051176155
O          -0.78696863042570   -2.55987256605352   -0.41468734467659
O          -0.57580467580059   -3.17947856690877    1.92248767098484
H          -0.33748179176702   -3.98617856386381    1.47873892641668
H          -0.67623593342597   -1.48234780897705   -1.58368182823232
O          -0.76194103864840    2.64140284348741   -0.17919069179319
H          -1.27581348007202    3.44263011824907   -0.28146124522299
O          -0.65514686516420   -0.77570121949079   -2.28107823109029
H          -0.70134285062612   -1.23351922207094   -3.12166755376084
O           1.07639981858058    1.25475957067457   -1.68998785142044
H           0.50283961375988    0.52751795966223   -1.99750250566390
H           0.47469595733171    1.89703587333122   -1.27209633178133
O           0.36820081142628    1.50564006078849    2.06385097743834
H          -0.04695216829106    2.08045074251298    1.39505463021868
H          -0.14672372923165    0.67806546400505    2.03451341910717
O          -2.26049552998098    0.52372581113147   -0.41328777978739
H          -1.85564050033590   -0.02863974568352    0.28543154649771
H          -1.40623946764898    1.87939162115485   -0.26093540599226
H          -1.96023045752698    0.12259306862447   -1.24203262496308
N           2.16749207024140    0.34858635443734    0.53717678350900
H           1.59560967395273    0.88969893343102    1.25383320515464
H           3.16470155926629    0.45762627694213    0.68045486302740
H           1.87823390604170   -0.66833924852379    0.62832578185762
H           1.86528789426338    0.69634206314224   -0.42015170713642
