    26
        -50.47250187  Gyration_radius:  2.48715422607 Dipole_moment: 2.858
 S          -2.08250659551117   -0.38013365908896    0.81308987898845
O          -2.37720239708093   -0.74908878980294   -0.56596631478137
O          -1.22159595474139    0.78465046261003    0.88997560906587
O          -1.60045388826638   -1.50795105106492    1.58756083554506
O          -3.45989682795256    0.04591230228259    1.46976933857553
H          -3.89316732485821   -0.79694767138405    1.54903417428370
H          -0.11527576085233   -1.93017433823226    1.19265448287377
O          -0.06731149167128    2.40564558558962   -0.93435707822753
H          -0.58128033741101    2.06191117828365   -0.18042553972612
O           0.83168316118213   -2.13920316663044    0.97877235878025
H           0.95582831115232   -3.06187003975046    1.20598864730693
O           1.69039439226677   -0.97101587243025   -1.33791653714783
H           2.10434443524491   -0.15834722340213   -0.99552718297744
H           1.42583105692621   -1.47777667448235   -0.54687241367338
O           2.36731872206138    1.40432274554534   -0.11817713358624
H           3.17851696347998    1.85537292411180    0.11640410722027
H           1.96588725929833    1.07932523856411    0.73959620754379
O           1.18652110367372    0.43111561034905    1.98986376983494
H           0.86384782568371    2.24758131167653   -0.69312886500508
H           0.25872182466077    0.62797004327954    1.74950752225304
H           1.26722110458641   -0.52707451271219    1.87497548994838
N          -0.54509416952192    0.14682491662386   -2.18972437485810
H           0.34318844034612   -0.39214563464407   -1.96845614701387
H          -1.33009912521475   -0.24674671895602   -1.59392165088886
H          -0.38729347961191    1.14608561124034   -1.85785807821007
H          -0.77812727786013    0.10175739242448   -3.17486110612347
