    26
        -50.46142516  Gyration_radius:  2.55487940974 Dipole_moment: 4.323
 S          -1.92704242594471   -0.03115699642840    1.38465848108056
O          -2.71223341832988   -0.66451033046404    0.32694431391706
O          -0.94744226075709    0.87875031965136    0.84276198823632
O          -1.37625017206740   -1.00274334001775    2.31473827105132
O          -2.95001666098805    0.84465336477052    2.23229621918616
H          -3.49019435078303    0.18267489532726    2.65281241943094
H           0.08345565747275   -1.47413906294075    1.91175396580510
O           2.31554736676884    1.05096190674969   -0.96094194106534
H           3.18140169169803    1.45745513995433   -1.00810686663910
O           0.99640541745203   -1.76947999476414    1.64676472977350
H           1.14182237933672   -2.60143605625452    2.09973769307876
O           0.13222398447859    1.92063971500223   -2.33511801753469
H           0.89722346881095    1.71580257187012   -1.75957462762310
H           0.48707708647370    2.09210831954101   -3.20859606209657
O           1.15492466781359   -1.45927054200950   -1.04260382647245
H           1.70017146094685   -0.65633632982861   -1.11111385051115
H           1.11188320121333   -1.65646542750837   -0.08496446901375
O           1.59298970912047    0.95180278192035    1.52122885276916
H           0.63197726971121    1.08626150378257    1.36839875267072
H           1.65842650117147    0.01609305102290    1.76079913716364
H           2.05385478610690    1.07425959995293    0.01117496633549
N          -1.16173736504168   -0.39249213469196   -1.73082601981623
H          -1.83821620560911   -0.45806605788989   -0.90679044615149
H          -1.58561788532540   -0.78647742649511   -2.56436277131654
H          -0.88066808415356    0.59756017918216   -1.89046030018227
H          -0.26996583957146   -0.91644964943141   -1.47061060207683
