    26
        -50.45553150  Gyration_radius:  2.45183618086 Dipole_moment: 4.708
 S          -0.87252065830435   -0.58486752948664    1.68217237380310
O          -1.70956517623493    0.61169707345975    1.55287799811873
O           0.52814832596385   -0.28508575763605    1.54856783893166
O          -1.34160502747809   -1.63880487916074    0.79771239793288
O          -1.09065273554061   -1.11626083504376    3.15811032814667
H          -1.99523803670630   -1.41324520140007    3.14891245438859
H          -1.27369019268806   -1.40569522524475   -0.76194157889547
O           1.52405061803228    1.50546246207796   -1.11088021585927
H           2.00619877120384    2.05529239873899   -1.72899868348319
O          -1.27766207427864   -1.15904044796175   -1.72949356773384
H          -1.82995579323538   -1.81167365687708   -2.16244582798539
O           2.10455745977116   -2.07381097643149    0.40850279935072
H           1.47890534029251   -1.47508584320660    0.87149623303842
H           2.96681177053011   -1.88673516377236    0.78377731128367
O           0.21353796525586    2.63490982364635    1.38533615965961
H           0.97790374785909    2.07310513455892    1.22658059641748
H          -0.45327722293190    2.04510823641400    1.75792787339840
O           1.51414422597823   -0.95896467205719   -1.95592005409212
H           1.81614393257628   -1.46940503466761   -1.17298066505217
H           0.56393231971641   -1.13946792793090   -2.01606000668097
H           1.61767111728306    0.56124551364526   -1.42521169899924
N          -1.10770494962892    1.40120468125263   -0.87074147474906
H          -1.61684684813212    2.21406942717486   -1.20203494871758
H          -1.38781941638932    1.17645476862863    0.13058240777838
H          -1.29548049085353    0.55240316184554   -1.43534778580596
H          -0.05998697201590    1.58719047947096   -0.88050026418348
