    26
        -50.45553150  Gyration_radius:  2.45186825514 Dipole_moment: 4.707
 S           0.48219869295411   -1.08766734470124    1.58682477993321
O          -0.86373104327464   -0.77112111739548    1.18956927677999
O           1.21295822444291    0.09316965215028    2.05656206689503
O           1.24830171937759   -1.79837581053531    0.57639471368723
O           0.37771969029189   -2.06305404229526    2.83019172035703
H           1.27968918789961   -2.33548859098474    2.96719193958019
H           1.54401646973215   -1.07758247438597   -0.79644962721908
O           1.76292144375678   -0.53340174898041   -1.60444734625571
H           2.46150931717690   -1.00833308479480   -2.05702105032038
O          -1.33438712021757    1.77155107687003   -0.95097774475046
H          -1.69733718922407    2.48733848895472   -1.47323788768364
O          -0.78555792878867    2.04869576296144    2.02303066834640
H          -1.43312142831653    1.56203199985899    1.50451402949032
H          -0.17992503633204    1.37543777310908    2.35664167762030
O          -1.94392673901201   -2.10997087201240   -0.81665428534371
H          -2.88517151192788   -2.05916242039196   -0.64126724529076
H          -1.50781904536246   -1.68726026024371   -0.04503386882686
O          -0.89391750111842   -0.29074349434426   -2.48087145807867
H          -1.33159614407734   -1.02772408298626   -2.00120889893593
H          -1.26192701475865    0.97763029368117   -1.55392826981023
H           0.05422870745353   -0.43571220598822   -2.34272971865836
N           1.15595238142788    1.61432048614507   -0.07461939202947
H           1.65523355828977    2.49407918999872    0.00587376380090
H           1.55264174726240    0.99298829758300   -0.80337064320450
H           1.20072989504445    1.08210225395930    0.84537586919541
H           0.13031666736431    1.78625230478044   -0.30035306929252
