    26
        -50.46507280  Gyration_radius:  2.55354370389 Dipole_moment: 4.277
 S           0.12435715458005   -0.82965591788884   -0.54800521685204
O          -0.70326246654515   -0.12419811445445   -1.51643055160486
O           0.17223808155776   -0.09911171709518    0.72608131043437
O          -0.32665344366048   -2.19694142572134   -0.31734653990457
O           1.57486739960956   -0.89250453661223   -1.09069115691378
O           1.95217412253522    2.91806706932779   -1.36141411321737
H           2.72840517060836    3.46119570646007   -1.50574667733547
O          -0.71157050433524   -1.01794208865502    3.03736482268307
H          -0.31852699912557   -0.58304396630369    2.24488911640791
H          -0.00020166694754   -1.51776433050808    3.44072178191673
O           1.34029734605482    0.83262048546498   -2.92992907178191
H           1.56248661892880    1.67748487313110   -2.47590666314699
H           1.60096662646053   -0.25509744589092   -1.88514499430384
H           0.38660597866760    0.71032109818886   -2.79805841399425
O           2.47611837580051    1.20916377444377    0.63629615733382
H           2.12963949643130    2.38932715925379   -0.54981370260229
H           1.59662011934018    0.79882373430537    0.77200929727665
H           3.00457446374483    0.51844386950201    0.22712933210387
O          -2.63495371827045    0.55759316331875    0.10051137765061
H          -1.99301894292120    0.36965076906718   -0.62624069086837
H          -2.69909990945121   -0.89962010986430    0.77874736517023
H          -2.16704689411731    1.15697240671519    0.68827300909788
N          -2.39764231581523   -1.84379662920336    1.15998937204876
H          -1.59505148005498   -2.14571356592413    0.50935339757372
H          -3.15469680868145   -2.51694223559197    1.19479447422407
H          -1.94762578443593   -1.67733203545628    2.08856698853989
