    26
        -50.47250316  Gyration_radius:  2.48722149486 Dipole_moment: 2.883
 S          -0.10489597356024   -2.06223198461411    0.93798638468906
O           0.17059804580921   -2.51586249361830   -0.41979214995514
O          -1.03859038013244   -0.95258489584779    0.96026736372469
O           1.11251620366947   -1.80837383724361    1.68442443714655
O          -0.83047608345957   -3.26313239728220    1.67358328881595
H          -0.11694698082688   -3.88694573011111    1.75202114189238
H           1.86364287006281   -0.48753418280171    1.20454252936873
O           2.28423168523748    0.37121401729662    0.93642919109510
H           3.21213208537529    0.29216456981001    1.16249695566898
O          -0.81749758266674    2.61736365922965   -0.26350701603601
H          -1.06456409761883    3.52384032588214   -0.07988363975552
O          -2.36497553157244    0.43814788938150   -0.93557333010121
H          -1.99258010257094    1.31957003021068   -0.74958884576979
H          -2.14244099931768   -0.09637824587095   -0.15099339451021
O           1.32327182423898    1.33768332259293   -1.43235496462188
H           0.63221308391391    1.94823147674728   -1.11803517899512
H           1.76363794562532    1.01045761869343   -0.62519553456110
O          -0.12427690749218    1.36906076049306    1.91508799436862
H           0.82528191189319    1.21813018640077    1.79914010998850
H          -0.58590371073665    2.20283054796118    0.61795576539777
H          -0.53342440955534    0.49974502985284    1.73055840588713
N          -0.29160583663842   -0.62343206192315   -2.15223939218755
H          -0.31237159816431   -0.91774333517457   -3.12166355485858
H           0.44118517834002    0.12681175042575   -1.98245883916848
H          -1.22347602651965   -0.21885561922405   -1.83354135449894
H          -0.08468461332697   -1.44217641128314   -1.50966636303091
