    26
        -50.46142525  Gyration_radius:  2.55496431238 Dipole_moment: 4.317
 S          -1.57192220034590    0.94585391019939    1.50665515811517
O          -1.04489184469226   -0.32999624484959    1.08722865536128
O          -2.25318558376645    1.63022663316288    0.40944563531879
O          -0.59466065503310    1.79908748549585    2.16175658487189
O          -2.68591535574629    0.64632666667267    2.60236907878694
H          -2.90531055169178    1.51720857395139    2.91884546119298
H           0.85812608904904    1.64682371115155    1.54421029791159
O           1.76504881620702    1.55007334797492    1.14537906482405
H           2.24516398799511    2.34032119942033    1.39736364781123
O           1.66150183162212   -1.94933025020211   -0.91220744751914
H           2.32595704583064   -2.63818975088193   -0.94593822428138
O          -0.86987989474590   -2.20597398300656   -1.87972848539977
H          -0.73205742690768   -2.63936589187433   -2.72321952353755
H          -0.00087679114256   -2.19188013158124   -1.42905626868256
O           1.39942334131607    0.75722867774428   -1.42161352979987
H           1.57064831940115    1.11453543933406   -0.52663266008049
H           1.63087889450551   -0.18617662010353   -1.36576833416988
O           1.39995381956018   -1.18551445104068    1.54551339957534
H           1.80759421510350   -0.30794962061396    1.57639920509238
H           0.43730749134678   -0.99365563903729    1.50707418351483
H           1.55837029802853   -1.71478187854115    0.06174029979107
N          -1.21606347260123    0.48228746524747   -1.66865751649147
H          -1.60834562887078    0.85454622048714   -2.52728970629683
H          -1.30685116419968   -0.55473180879631   -1.63898484544460
H          -0.17225615752934    0.69139325763722   -1.60238225365374
H          -1.69775740269745    0.92163366204936   -0.82250189681084
