    26
        -50.47071259  Gyration_radius:  2.41592274184 Dipole_moment: 4.176
 S          -1.94293344232473   -0.26962037446957   -0.51496708182308
O          -1.21149204777903   -1.18787924587677   -1.37182985043355
O          -1.60490022407718    1.11926540725953   -0.71172318734207
O          -1.85007472510657   -0.66165957789273    0.89307425897908
O          -3.46772075393252   -0.41791687861741   -0.91455360354788
H          -3.57771713992063   -1.36182735002970   -0.95180367622405
H          -1.38171224586790    0.69234404931246    1.70594527783164
O           2.13943510684737   -1.17566094672163    0.65946880295650
H           2.83821090235022   -1.71397661119285    1.03264553158021
O          -1.03608476853091    1.58897517753924    1.92381427015890
H          -1.43543881630336    2.14154985972905    1.24242970972691
O           1.32552404617908   -0.53592561204801   -2.02738913196749
H           1.77749754220806   -0.85218273762865   -1.23382838695961
H           0.39324972958461   -0.81052962874862   -1.93230346206646
O           0.80194584932177    1.98894102258055   -1.45151172944711
H           1.11394908598998    1.15988821760287   -1.88633905798620
H          -0.15807070932651    1.83979061288586   -1.33383880992657
O          -0.06430158590001   -2.55045314148733    0.61578620044011
H          -0.73225543649573   -1.95421733260449    1.01017306818733
H          -0.29486259853385   -2.50146106159310   -0.32471402783870
H           1.30809858703364   -1.73438646536387    0.69865739282808
N           1.43521202135067    1.44310537451786    0.99658245681500
H           1.76386858928550    0.45862423630962    0.97469970983574
H           0.48954678422920    1.49756278134125    1.48221178481083
H           2.11445232883737    2.04131413184483    1.45309045371058
H           1.25657392098577    1.75633609318282   -0.03377694234011
