    26
        -50.45553152  Gyration_radius:  2.45186318366 Dipole_moment: 4.709
 S           0.89076518575865   -1.74961219041085   -0.28058418860598
O           1.40184986087258   -0.48751726362425   -0.74477918092868
O          -0.32742426076863   -2.14888356668789   -0.99173810180708
O           0.69236262472232   -1.81748114289445    1.15782488664866
O           1.98144771250911   -2.84382471519825   -0.62899579543929
H           1.65116455658034   -3.62385441699592   -0.19422462098597
H          -0.36106609806766   -0.84910727758786    1.82422348855019
O          -1.09814787314572   -0.26838232859540    2.16544785964644
H          -1.29328868704983   -0.58666621094361    3.04806965732435
O          -0.70961265839104    2.11705940513037   -0.91542717044932
H          -1.13991027740221    2.94871893704214   -1.11552553710148
O          -0.53489272612463   -0.14632485456698   -2.93252740416815
H          -0.33339766591027   -0.99727934028413   -2.52430578676315
H           0.10465295778898    0.46509849191479   -2.55542140646281
O           2.58149028462297    1.11927267971276    0.99035533227069
H           3.17569213329705    1.64051191989104    0.44764446155464
H           2.18315581127502    0.45645603931946    0.38513779535134
O           0.17129687129070    2.15608592499373    1.53610760678153
H          -0.31309898555866    2.20567073771925   -0.00216117609322
H          -0.28108101596293    1.38833538446728    1.91691402063427
H           1.10801642023622    1.87461873571838    1.44621362194999
N          -1.93796625910112   -0.16876541620593   -0.40480797823281
H          -1.47866789985803    0.71820477103710   -0.77187369390564
H          -1.34755880144086   -0.99485582560224   -0.72206746359112
H          -1.90296027464884   -0.15178220454017    0.63105360586802
H          -2.88282094563950   -0.25569627286409   -0.76455283214496
