    26
        -50.45553153  Gyration_radius:  2.45187128496 Dipole_moment: 4.708
 S          -1.73202106963544    0.62396299052066   -0.73764448124017
O          -1.18942570740752    0.27464599161879   -2.05393379300195
O          -0.82571763141409    1.44111234151585    0.02417898745340
O          -2.19078720471174   -0.56500490759311   -0.03845257025092
O          -3.02190569305677    1.50081724914801   -1.01275315193605
H          -3.62725200814111    0.87800094587432   -1.40278577873706
H          -1.13134102221993   -1.66205134742084    0.36853367983079
O          -0.42289470107701   -2.34883894185928    0.52134202004453
H          -0.88721201431477   -3.15700855940029    0.74422865914543
O           2.35198759856004    0.40838710179998    0.35202149009931
H           3.29582132896285    0.34976007248736    0.50230031946049
O           1.18097749866514    1.75710980908701   -2.10369598563622
H           1.21297274330299    1.98052225028808   -1.16876079459577
H           0.26320379014497    1.50700547642713   -2.26653742200628
O          -0.75252155932740    1.14537723591625    2.64938794575242
H          -0.86561673699961    1.24660669355060    1.67922385863433
H          -0.44658514380486    1.99778252471945    2.96418980769331
O           1.08227566262506   -0.77543874003951    2.29466805274133
H           1.90340926198012    0.02144190668771    1.15711685329020
H           0.42248026320637   -0.10505110515598    2.57755115256940
H           0.56713692702521   -1.44001967506222    1.81295983610385
N           0.97742630487634   -1.03580569060057   -1.38562802108131
H           0.13945103486324   -0.49177191608114   -1.75097219803517
H           1.50729653200918   -1.42282992690968   -2.15970337467810
H           1.57876636947878   -0.36409711890152   -0.82024984682462
H           0.61007517641720   -1.76461464054370   -0.74658522470681
