    26
        -50.47071336  Gyration_radius:  2.41584705063 Dipole_moment: 4.148
 S           0.72571038968836   -0.54978960182336    1.81144130623400
O          -0.17365843843753    0.56356160984722    1.99547387709313
O           1.91187202854968   -0.23608849826066    1.03270834758145
O           0.03536952884993   -1.72886779077596    1.28384933433752
O           1.24261775222992   -0.94870883543522    3.25387287909435
H           1.97634827291894   -1.52053088105563    3.05577791333481
H          -1.54400782521782   -1.28993171504861    1.11952925820550
O           0.19844147042961   -0.35877264587738   -2.49455054016080
H           0.26263640998801   -0.68054560972703   -3.39436038731148
O          -2.37244166138758   -0.76129388793306    1.04837545455399
H          -2.26475912432809   -0.10388318729640    1.74507129680027
O          -0.51675513769152    2.52799977377092    0.22943062978881
H          -0.40186684051253    1.98853116170677    1.03784965397745
H           0.35152744374526    2.44234817916462   -0.23147211419327
O           1.65352205497685    1.58358466822405   -0.94499003394162
H           1.87183976716006    0.99374311304804   -0.19792194105374
H           1.29618870858704    1.01282574882283   -1.63818663943558
O           1.42821409785322   -2.00922684179465   -0.90944754348402
H           0.65269016869042   -1.04446780107459   -1.92173011983174
H           2.06929206911131   -1.42054169753931   -0.48348097361876
H           0.79172526195914   -2.16414194618140   -0.18208218986590
N          -1.85878957588424    0.73676444328205   -1.06806379975953
H          -1.36257613442486    1.57515348084266   -0.57574544643207
H          -2.66608988355563    1.04390252374215   -1.59868164100647
H          -1.16263017756088    0.27636648036422   -1.68550189926571
H          -2.14442061571860    0.07200975703004   -0.28716468168939
