    26
        -50.47250298  Gyration_radius:  2.48730166542 Dipole_moment: 2.888
 S          -1.29825777648638    0.26669580689098    1.84031548471174
O          -2.36300292095137    0.46649046322976    0.86461105345479
O          -0.06405998332053    0.91281859528273    1.43675248311310
O          -1.13216366841947   -1.13211603943931    2.18580695714602
O          -1.76398973118842    0.99692283392152    3.16680876663271
H          -2.48517402616737    0.43977087987761    3.43867498134695
H          -0.45546893238802   -1.98036612972823    1.01896878923837
O           0.68743570534832    2.38906388755202   -0.69515789835493
H           0.51232872364879    2.07735643136859    0.21203475382390
O           0.02425476680826   -2.47959748579441    0.30698138376845
H          -0.22558590740587   -3.39844684158664    0.41540496462962
O           0.09401046162196   -1.13399183824684   -2.07111619030717
H           0.95980203132380   -0.69144823650370   -2.00953520905924
H           0.03713840419882   -1.69948720254821   -1.27780668438405
O           2.34595015880737    0.30786087261996   -1.41171211913497
H           3.26729592929375    0.30287156154126   -1.67150906307037
H           2.31175768259518   -0.06204934813523   -0.48190913286562
O           2.03475667587951   -0.67560825888915    0.97993964239146
H           1.34535645523544   -0.06409594316429    1.30855753427543
H           1.56444796716359   -1.50794178690865    0.82482517060065
H           1.39884757807745    1.80947128408685   -1.02397155566704
N          -1.38114913572496    0.97907905576419   -1.49521297042475
H          -2.04820754499390    1.31821229333035   -2.17850431596007
H          -0.89865536083860    0.09054347261582   -1.82128865932945
H          -0.61296164606096    1.68862938698012   -1.29520544469281
H          -1.85470588606106    0.77936226589048   -0.56675274188229
