    26
        -50.47071342  Gyration_radius:  2.41593593506 Dipole_moment: 4.149
 S           0.32316683894042    1.82908630185877    0.81285523659537
O           1.63463281769324    1.40811993629017    0.34922132417967
O          -0.25178033584578    0.97154716643454    1.82096472074593
O          -0.59539343746251    2.04919296071894   -0.30650092969664
O           0.53407531700843    3.24167324300869    1.49621352322376
H           1.10002432899067    3.68582399975067    0.87409074594750
H          -1.96104838998278    1.20423645368212    0.05980606378975
O          -2.59885401196763    0.57494331616877    0.46983610663337
H          -2.40353710763880    0.65757550740855    1.41013764194315
O           0.39286633032499   -1.44942809409718   -2.03415457663061
H           0.47414444827354   -1.84677715852445   -2.90177464152844
O           0.17230848650148   -1.65267801811658    1.98866771169362
H           0.03644118569372   -0.70035445343952    2.16867703153112
H           1.03301608791594   -1.67658931229528    1.50683866182971
O           2.12609903440292   -1.24527692655313    0.25678297974809
H           2.08249361523956   -0.27387255836947    0.34679446276047
H           1.71329580135358   -1.45190846142562   -0.59222447488562
O           0.92066473988185    1.08836165466370   -2.20625224723293
H           1.63965057777772    1.17545354896231   -1.56222117461427
H           0.56871068314212   -0.47065560126428   -2.15985393627072
H           0.18176641218072    1.52219660546753   -1.73329140550990
N          -1.44160578469043   -1.74841196498557   -0.03120090590410
H          -0.79827764158743   -1.82034652448471    0.84763982567589
H          -1.99036326889698   -0.84381640290442    0.08630758247238
H          -0.82864460986730   -1.68242997278247   -0.86657789582322
H          -2.06385211732871   -2.54566523522930   -0.10078140077223
