    26
        -50.46725640  Gyration_radius:  2.60270219938 Dipole_moment: 3.997
 S           0.21605859900916    0.68563793244156    1.46862544346238
O           0.66506642441441   -0.62746485528216    1.05151098586641
O          -1.23195475519346    0.73897169345251    1.62405757102411
O           0.66722791338806    1.73032529805291    0.53790813292781
O           0.87276188953045    0.98037381544564    2.85011236140659
H           0.73078660596537    1.93991045806914    2.98116230074066
H           0.05695976088051    1.41922100609186   -0.91455846193753
O           0.71530432298212   -3.08522755772395   -2.03605871385510
H           1.39541551530588   -3.75604600906675   -1.96311876188899
O          -0.34117184940735    1.16086661918915   -1.78658562905774
H          -0.41863750209814    1.97031167268293   -2.29407939093837
O           0.64208213548129    3.57696684215710    2.40118299375440
H           0.60380381240004    3.10642858117991    1.54363530705339
H           1.48149328620497    4.04236770714637    2.42030546833210
O          -0.83878853097016   -2.66712418015852    0.08700480860343
H          -0.32704960395084   -2.95085073404361   -0.70735743706870
H          -0.21679672655621   -2.13971086627366    0.62146974432581
O           1.76187633586733   -0.73103658801598   -1.40858173729715
H           1.17173277848583   -2.21767406262187   -1.90270318401969
H           1.20810260768370   -0.06190564918389   -1.82950966893476
H           1.52814210449661   -0.68963929374131   -0.46118917939361
N          -2.10097243605639   -0.48535547756200   -0.48232065122189
H          -1.88903370009964    0.02961810158312    0.43032704499922
H          -3.09547647228196   -0.51489993908775   -0.67701946623920
H          -1.57897980961225    0.02214632215212   -1.21652915417053
H          -1.67795269587103   -1.47621085688594   -0.33769072647832
