    26
        -50.46725627  Gyration_radius:  2.60262385026 Dipole_moment: 3.999
 S           1.46122779365266    0.44380018010271   -0.58470380245068
O           0.22257199526818    1.18759997969274   -0.69556286798846
O           1.45430004131191   -0.74821786157143   -1.42298100182970
O           1.75042568418451    0.08335895556498    0.81084769832251
O           2.60728173770465    1.38159793329464   -1.06831993542256
H           3.42394528164831    0.93129830155767   -0.77131071643246
H           0.55266594945613   -0.83356407614666    1.36122778428341
O          -0.22563946453794   -1.38327768694827    1.64022638033915
H           0.08708957458333   -1.94688962127657    2.34969313520028
O          -3.59443944301284    1.08089405758216    0.30404356764929
H          -4.00644226552670    1.94554795708957    0.28146633720762
O          -2.11577788472349    0.36249530709839   -1.79241110897990
H          -2.77540927943078    0.62193107177083   -1.10614624801720
H          -1.31252544065595    0.87571404661065   -1.58724755224301
O           4.33781388348757    0.00369823213832    0.38250539898684
H           3.43854971232274   -0.15082596571919    0.73695207588058
H           4.79993237049502    0.53755926450155    1.03290020805134
O          -1.26280449613223    1.27422004272681    1.55232569934901
H          -0.67084301621459    1.40036010772216    0.78581904968552
H          -2.78848532006471    1.17696469815068    0.86968795248626
H          -1.05367909012814    0.39226538979263    1.88399212147262
N          -0.88528859099521   -1.76394268935864   -0.99173346341975
H          -1.12728373715714   -2.66526172068440   -1.38778322042459
H          -0.88775688633223   -1.78342906342995    0.04207381107132
H           0.09984707656114   -1.45747054650314   -1.27195620361516
H          -1.52927617575940   -0.96642626375223   -1.35360510916873
