    26
        -50.46201446  Gyration_radius:  2.69388013781 Dipole_moment: 2.912
 S          -2.63719491645017   -0.19207350949319   -0.65808942366547
O          -1.90275840410017   -0.48287096324693   -1.88988824881603
O          -2.19839273818710    1.02386304446085   -0.01996215263091
O          -2.64083712020406   -1.34899460258538    0.22739546595647
O          -4.14487299574525    0.03566968613657   -1.09020770006897
H          -4.38230374068272   -0.83023492659598   -1.40558739555488
H          -1.22787012587817   -1.58238827386204    0.85762630356289
O           3.32407167488521    0.16175263911550    0.94367556507988
H           3.99596374788110    0.65738285256733    1.41233185134035
O          -0.29046766966781   -1.76478699749146    1.15388327609159
H          -0.33570060535173   -2.54685673612548    1.70634975249899
O           0.06107384271322    2.25689896422332    0.26085558997722
H          -0.17722398386813    3.17806375703039    0.37349964566455
H          -0.79326965649578    1.77928225782933    0.11233433669831
O           2.01795759246839    1.05592635718223   -1.20863692128643
H           2.64240994486125    0.78185295254429   -0.49978147606621
H           1.37190970174821    1.64272605732175   -0.77356947338680
O           0.99663581448259    0.47924988905898    2.16267820349618
H           0.62658964519288    1.19587103147361    1.61929499336351
H           0.47564694923670   -0.30830463622776    1.93797946476199
H           2.50280267352357    0.22231694468169    1.49502970910170
N           0.55751675044996   -1.09942235129806   -1.35119247269646
H           1.18283132619188   -0.21816277882615   -1.36359945478650
H           0.93448489513082   -1.81319655477275   -1.96502235138155
H           0.47199567905922   -1.45364266906647   -0.38121919624442
H          -0.43099828118139   -0.82992142404872   -1.65617789100676
