    26
        -50.46725636  Gyration_radius:  2.6027017962 Dipole_moment: 3.996
 S          -0.59458218473845   -0.33684197248966    1.48564665252057
O          -1.93589477385317   -0.09007284545135    0.97197606670852
O           0.31944205594471    0.73380204333403    1.14195792757103
O          -0.10072492326426   -1.63904898422974    1.01504477054782
O          -0.66482069411831   -0.40199253941462    3.04044192595393
H          -1.10160341974163   -1.25863338582666    3.22315944990103
H           0.04326507225254   -1.58517569876108   -0.58350051611337
O           2.28367479428644    2.32134672992558   -1.89177864053616
H           3.02656883202055    2.85667017194548   -1.60991286701974
O           0.12130525525195   -1.47859137291509   -1.56746816434345
H           0.04649385897916   -2.35963232173393   -1.93761515492353
O          -1.38245693905029   -2.94390801045645    2.89606738493821
H          -0.78366008229593   -3.53464498558994    3.35873554323437
H          -0.93824223423914   -2.69569315483702    2.05981001330488
O          -0.05210464869717    2.71400048846702   -0.67240180511472
H           0.13086482596131    2.22884147553783    0.15332278658032
H           0.79506665117116    2.70070847099736   -1.17808419979828
O           2.30889874420492    0.04003543126020   -0.54016048553073
H           1.81800237015916   -0.60054630005254   -1.06956229383435
H           2.39464913788301    1.44427838752564   -1.44792292201714
H           1.70734925216411    0.27182579109475    0.19345054653578
N          -1.50600312724472    0.72268665493175   -1.44565950103863
H          -2.28668529697706    0.88245339700758   -2.07242811292310
H          -0.88716080102827   -0.03289826115720   -1.78496921151794
H          -0.93021496960812    1.62640506509779   -1.26326292536561
H          -1.83142675542355    0.41462568578852   -0.47488628772098
