    26
        -50.46654163  Gyration_radius:  2.46937051733 Dipole_moment: 5.993
 S          -0.37924902718691    0.00865400969510    1.07435300530574
O          -0.76455309873061   -0.21495494181747    2.55249067097446
O           0.48585544173764   -1.09421483177834    0.64932375097603
O          -1.57514399312313    0.09839452893956    0.26240324695275
O           0.37673550846897    1.26953840104918    1.06554883699873
O          -1.55275273458518   -2.64034470056942   -0.04147424607220
H          -2.10367396077204   -1.93067788148917   -0.38932251902843
H          -0.68940542215723   -2.21120896370220    0.12426069825201
O           1.65539411639962   -0.74434318740612   -1.69730207311027
H           1.32163442855298   -1.12039140469190   -0.85401265461966
H           2.22572089671087    0.48139183255340   -1.13713589036051
O           0.05472507259415    2.98699717481293   -0.95193338924458
H          -0.68766630426674    3.59031366491184   -0.89795851509073
H           0.01808589527245    2.43756683912158   -0.13985092258783
O          -0.58268727641419    0.55684660572065   -2.16226966924895
H          -0.38067042998804    1.49896174117438   -2.05888546430244
H           0.83612044673430   -0.38337248721378   -2.12026102603703
H          -1.07174511609864    0.32541038981815   -1.34653327763275
O          -2.01645508883011   -2.48356483895099    2.54085963341180
H          -1.47274241764714   -3.14927064438693    2.96745123172316
H          -1.30479189460423   -1.05241093473130    2.59270653101672
H          -1.97809149100223   -2.67467699140340    1.56791045656089
N           2.40378962097274    1.40682025141933   -0.54970244750073
H           2.12446504528703    2.22624876427314   -1.08915198928370
H           3.35577006018632    1.48868047174000   -0.21106527944093
H           1.70133172244206    1.32360712291352    0.24955128140472
