    26
        -50.46597431  Gyration_radius:  2.51672492135 Dipole_moment: 6.356
 S          -1.08758336621688   -1.59368280296408    0.77467185757616
O          -1.30915435396014   -0.66147770499400   -0.33508515379255
O          -1.51367493348504   -1.10919549738551    2.04898010512332
O           0.30921415500217   -2.04330500738947    0.75911698017755
O          -1.96011573261619   -2.86368106921659    0.41846317768665
H          -1.81951635597061   -2.96314056680130   -0.51793967933893
H           1.18488530423566   -0.81234287204860    1.42392415389857
O          -1.81318400326637    2.07670745108138   -0.35039566098462
H          -1.93373604486818    1.12708346348459   -0.49485283203730
O           1.67223261589231    0.01355508379352    1.65183135308858
H           2.12427341286567   -0.15697234168591    2.47935027884172
O           0.12544934988567    2.75092629683237   -1.98413730931658
H          -0.64411390325820    2.64826312655815   -1.35843383277750
H          -0.25558131682516    2.90361688715415   -2.84950025277810
O           1.67716798479342   -2.09675478171136   -1.51189648639056
H           1.16153042527751   -2.17733299828724   -0.67834881505739
H           2.41027327387401   -2.70823188119172   -1.43226182187677
O          -0.70990811693383    1.47270391285377    2.03388851148497
H          -1.48110750565947    2.12187464329077    0.56927109263347
H          -1.16960303274614    0.62723669604463    2.17722065538216
H           0.22690940600578    1.23763523300211    1.99929171763924
N           0.98502672936551    0.45662220850415   -0.98030351757331
H           1.48228296665007   -0.27839220856696   -1.50431379513312
H           1.47197414830476    0.62552650416961   -0.09309868340478
H           0.82914100015365    1.35445529698144   -1.50465933550256
H           0.03691790341873    0.04830291853024   -0.74078269749678
