    26
        -50.46369354  Gyration_radius:  2.50141603127 Dipole_moment: 5.122
 S          -1.61845179229596    0.96391538777412    1.28243565039825
O          -1.61054897388961    1.51985472544934   -0.07241848577561
O          -0.30251378278309    0.95850957229660    1.87927912576132
O          -2.28124498059468   -0.32806353673919    1.31028843251552
O          -2.50614262578360    1.93921034246676    2.15434809938834
H          -3.38892509517359    1.72981293972144    1.86721991640524
H          -1.44975864067110   -1.50376416877736    0.62617474678285
O           2.12263517188725    0.53328291726010   -0.83891459358094
H           1.91426577299151    1.43398691345557   -0.50625763268899
O          -0.88855313997398   -2.15516275254491    0.12725837800710
H          -1.35845859141363   -2.98995300883312    0.14798453138485
O           1.71612832657878   -2.13437162285362   -1.88084114454435
H           1.83887698876210   -2.58754632381862   -1.04403669483696
H           2.31917454341421   -1.38446965093625   -1.86380934075835
O           0.92863446988330    2.67067222105899    0.24394294755445
H           0.12560702958522    2.87339780486613   -0.24516113203065
H           0.61011486127649    2.15106636041781    1.00603309998191
O           1.42170863927087   -1.02623568622703    1.20922167723815
H           0.92392012796551   -0.32527511373186    1.66516575700791
H           0.73869214049145   -1.63373920729698    0.88939774992467
H           2.08956831063242   -0.03716163341813   -0.03524802619295
N          -0.28413083681369   -0.13490968402201   -1.60954929922848
H           0.74561174210048    0.13326414085528   -1.42169779786695
H          -0.48077833653369   -0.14363921124588   -2.60434580453077
H          -0.43396975784330   -1.07679707082565   -1.20286421235406
H          -0.89146159107272    0.55411533563032   -1.08360596796639
