    26
        -50.47336900  Gyration_radius:  2.47346562456 Dipole_moment: 1.146
 S          -0.38120110590803    1.29684800061292    0.46968630301555
O          -0.63082089326892    1.02391820077903   -0.94117919612898
O           1.03386458177198    1.19806594932404    0.78220134856207
O          -1.18925951088257    0.42916731227291    1.32554831132112
O          -0.79700998464769    2.77105573199061    0.75817967778684
H          -1.77450106014800    2.74562251899548    0.75506465903494
H          -1.69510940086691   -0.85544571674997    0.30770249747636
O           3.25908572762681    0.45433186860879   -0.46302652404671
H           2.56359116916066    0.93041129340658    0.03475437208894
O          -1.90852023746328   -1.45526774126440   -0.43287264579061
H          -2.06096913651991   -0.86441705673746   -1.17504233679465
O          -3.29748786032188    1.96694363074309    1.04562486533358
H          -2.71529756571995    1.20065026792433    1.22244866140085
H          -3.75631193819758    2.15998429658152    1.86627252323306
O           0.50505689352874   -2.58971298244909   -0.68549262526005
H           0.84714171773717   -2.32538663044717    0.19494589426758
H          -0.45735442544388   -2.39691182896783   -0.63541490839441
O           1.12555371306950   -1.33303940072447    1.61774296581703
H           1.14581562147736   -0.38566341416858    1.37792571947024
H           0.34536074676351   -1.42362557815537    2.17002325554103
H           3.60452794405789   -0.20084691864073    0.14847419245273
N           1.25825068194558   -0.47001220330698   -1.98221860794782
H           0.49933641690822    0.19584593277354   -1.66163791141782
H           2.15609185576313   -0.14360847386242   -1.54755662778491
H           1.00156959272648   -1.43117456090341   -1.55850939207422
H           1.31859645686949   -0.49773248761318   -2.99364446115565
