    26
        -50.47250196  Gyration_radius:  2.4872028071 Dipole_moment: 2.859
 S          -1.95111396786585    0.91607942638591    0.70538575795258
O          -0.95949454179750    0.11950300276230    1.40249690848933
O          -2.50851184428818    0.20970301817204   -0.44139186700981
O          -1.48341408520548    2.24310393724214    0.35298435236503
O          -3.14331694089427    1.12821908073611    1.72686326776254
H          -3.65354458247568    1.79266706022140    1.27675529207971
H          -0.14362659917102    2.20949632616494   -0.50953320352157
O           0.72407671511084    2.17244173376389   -0.99105094429285
H           0.77496984240770    2.97959797638930   -1.50509330456472
O           0.06337013751901   -2.35479857246272    1.05656800138402
H          -0.35693034833521   -1.56065433792504    1.43527362995562
O           2.46447108869638   -1.15484272960349    0.43124369552639
H           3.34981792208897   -1.33556927690973    0.74756863439224
H           2.17416788908371   -0.30390249713286    0.87165056129250
O           1.32249237279976   -0.32244846652337   -1.93340888058714
H           1.13374834423121    0.60440499568861   -1.69297389468662
H           1.87983031096655   -0.66643457200061   -1.21216869238717
O           1.53857659516962    1.06524159610880    1.43085845748160
H           0.61357400010478    0.78799189610482    1.58798151461728
H           0.99623176389159   -2.10410259142538    0.92595781003852
H           1.48623300928205    1.65664622298663    0.66575779772544
N          -0.87572995633849   -1.63647578902428   -1.29061950770922
H          -1.27079613645793   -2.29505199485596   -1.95169787879844
H          -1.59295234678565   -0.90962836349935   -1.00173874183464
H          -0.54964867508422   -2.11068777525202   -0.39499946479439
H          -0.03247997657127   -1.13049929619622   -1.69266928091440
