    26
        -50.47336958  Gyration_radius:  2.47374312581 Dipole_moment: 1.158
 S           0.04748137943592   -1.33533073338255    0.50390370780544
O          -0.77500437986842   -0.39260008201700    1.25365614267117
O           1.43533497885223   -0.90830407809313    0.46654931089731
O          -0.49099273229846   -1.55419076467594   -0.83779346212898
O           0.02444457933687   -2.70084968281019    1.25484364917772
H          -0.86521999194122   -3.06005437557930    1.06628326198344
H          -1.55403861292278   -0.23558564798821   -1.11083146228748
O          -2.13284105883767    0.54850566115951   -1.04842046041168
H          -2.46377933427095    0.52248362216057   -0.14675554927594
O           2.84114600232523    1.20953173293968    1.23419388269154
H           2.48001019139715    0.31176928284217    1.08544853134691
O          -0.22526850990151    2.42036075959633   -1.23600822546836
H          -1.04753521538523    1.88668520129313   -1.30671938662993
H           0.47027345692687    1.83609642713536   -1.60636357641105
O          -2.25692817056617   -3.27890121236544    0.05330386076743
H          -2.31978683690868   -4.08351283666139   -0.46608862285429
H          -1.78595205826731   -2.62310415926101   -0.49939443755161
O           1.43353269772545    0.39062874014356   -1.86293593238434
H           3.30272991715451    1.43467800373511    0.42260493938234
H           1.51496785257875   -0.11748039012473   -1.03203432155530
H           0.92284620484282   -0.17924974873020   -2.44294426519300
N           0.28606687717477    2.00690582490118    1.27580753026319
H           1.32160548088774    1.86175092902512    1.36485752736140
H          -0.16876530552480    1.05597472988744    1.38026359524336
H          -0.06298509555158    2.65863340088314    1.96919060460740
H           0.06865769360876    2.32515942598290    0.26538312796420
