    26
        -50.47336961  Gyration_radius:  2.47367917753 Dipole_moment: 1.159
 S          -0.58612952590130    1.24767179915527    0.37396969820634
O          -0.06817692561913    1.47385311217489   -0.96413096067054
O           0.44988377466673    0.73066077143454    1.26094957790544
O          -1.75688686304964    0.37159949335803    0.36365936414331
O          -1.03662366350910    2.63807762932886    0.91530134748683
H          -1.57475790781981    2.42283628594689    1.70281505537764
H          -1.20162528861361   -1.12076005414291    1.00183630508782
O          -0.70798124546784   -1.85121814529886    1.42195655547097
H          -0.16484785653598   -1.41511076621654    2.08377014611405
O           2.19773340527328    1.02717732443133   -2.27427840169387
H           1.39981348977406    1.41575969967242   -1.86088458731194
O          -2.66850787245288    1.41239257948092    2.59364690679797
H          -3.60368701876110    1.62742446213299    2.57507614429591
H          -2.50380659733092    0.80804976071098    1.84196022811543
O           0.81611771194063   -2.51161246451495   -0.68012708547961
H           0.24739346400926   -2.50775400886013    0.12140246581675
H           0.27173928948111   -2.06094431632117   -1.36042680955299
O          -0.75395365817038   -0.84100913858476   -2.09752772538064
H          -1.64370646294747   -0.99997320467142   -1.77348756302001
H          -0.52660893229033    0.04721886489382   -1.75902739992088
H           1.87888030868106    0.55865707991069   -3.04965259855556
N           2.34138448201011   -0.49812208751348   -0.07915244783173
H           1.66354100957600    0.04425357079897    0.52789604133014
H           2.48144690882155    0.06142388010067   -0.95586640473189
H           3.21641179876822   -0.66291860797741    0.40515545070185
H           1.83295417546711   -1.41763350943278   -0.33483328271663
