    26
        -50.46390590  Gyration_radius:  2.5329056753 Dipole_moment: 3.388
 S           0.35966878263574    1.14502457306730    1.88887179477282
O           0.31624453642791   -0.18452150148389    1.30465260549240
O          -0.52647833140222    2.06143089859217    1.17810084544893
O           1.68868757355550    1.67433156853457    2.07627801843432
O          -0.25635142794888    0.97376546116808    3.34709816213795
H           0.07806054812502    1.73651199165061    3.80821556565598
H           2.08186813902900    1.60290009045616    0.47349407035175
O           0.46633383851114    0.81641242896442   -2.27756113490198
H           0.68951594022054    1.29422111101467   -3.07734396238350
O          -1.95406671613638   -1.41703326048783    0.59200614238236
H          -1.17616714941078   -1.11281093500725    1.09802984378614
O          -0.68915102759721   -3.27827798410608   -0.87198179731233
H           0.12211292933478   -2.71973770727542   -0.92741690115455
H          -0.43066725423376   -4.08142780576678   -0.41845497766734
O           2.28198692633267    1.36732501980495   -0.45802249403791
H           1.10576759646642    1.12712921292446   -1.58422968790978
H           2.78368524213325    0.54774437477974   -0.40875793614420
O           1.31016755120712   -1.50876117550586   -0.82528689620993
H          -1.63141539489028   -2.17179833231582    0.04993870214216
H           1.05597655790381   -0.89700259679291   -1.52808565529432
H           1.04785867181864   -1.07039271183617    0.00700597934056
N          -1.76952811598043    0.82300486439410   -0.71690165326264
H          -1.96534503876282   -0.14368561800556   -0.28455962873227
H          -1.32268807058685    1.39577865867769    0.07121000331901
H          -1.05038724783731    0.75396520456939   -1.46024840696465
H          -2.61568907887038    1.26590417997258   -1.05605060127744
