    26
        -50.45298277  Gyration_radius:  2.65586922404 Dipole_moment: 5.320
 S           2.38207678170888   -0.42119832815383   -0.08786741091693
O           1.40169462032028   -0.38654705682193   -1.14420891285508
O           2.09209394978902   -1.47067368699545    0.89151994348377
O           2.58055930810483    0.86791801652723    0.56195550312554
O           3.77257833254469   -0.80227617146830   -0.75259146538143
H           4.38280344803301   -0.75898987854262   -0.02208066837781
H           1.25911397881832    1.37585981357973    1.20366106331472
O          -1.40906472540091   -1.13257534773185   -1.46740814220298
H          -0.72032353363652   -1.67513967208188   -1.86057024539217
O           0.39698229153022    1.61275853476173    1.66156804255944
H           0.65503114292451    2.06383268560660    2.46735110909811
O          -1.03266534013307    2.91327984948387   -0.28399015535415
H          -0.47305076907358    2.52806446048317    0.41466455367210
H          -1.93418476956666    2.90188050706025    0.04065728096271
O          -2.89065511701702   -2.12798710216940    0.75153297038578
H          -3.66831784665812   -2.67871867897274    0.65805174831906
H          -2.63841188282977   -1.84792963998185   -0.14087970172479
O          -0.51252787274843    1.14460457378071   -2.31844528665718
H          -0.68673236374512    1.88560640763497   -1.70982990058571
H           0.35590872456966    0.79012039902617   -2.06261175377893
H          -1.23377003384162   -0.22451980556862   -1.85342942770138
N          -0.42848490948360   -0.91666774802478    1.03310110323210
H          -1.10762679526351   -1.47808742119359    1.54959546954642
H          -0.36430851169463    0.04979833890092    1.39397937575763
H           0.56374839334310   -1.30602625642774    1.05216613448073
H          -0.74246651058228   -0.90638679272668    0.02410877301498
