    26
        -50.45601077  Gyration_radius:  2.60938888081 Dipole_moment: 4.591
 S          -2.02715801677341    0.51874255870950   -0.14005991103140
O          -1.82864999221275    0.09137723278965   -1.52254521962052
O          -1.04331153290198    1.48971873351361    0.28225521031034
O          -2.10635136060013   -0.62202734911818    0.76068040428976
O          -3.43463415163938    1.23562912466382   -0.09420841506399
H          -4.01238291736231    0.56536273146436   -0.44509350077632
H          -0.78005105962078   -1.62103274555294    0.55983965851792
O           1.63503281526978    1.74165302535489   -0.24682053803647
H           0.75664689475653    2.15152979284773   -0.22697086387977
O           0.09920601032990   -2.06483431363870    0.56153285149720
H           0.06152950263669   -2.65745512084239    1.32028514273641
O          -1.03354289749638   -1.69043585585075    3.14608254375952
H          -1.64373045990190   -1.33598240224979    2.48456603235908
H          -0.47178282912785   -0.95338447771002    3.40341257824351
O           2.83477373751443    0.82528147017714   -2.73127646139576
H           3.51523885514576    1.25056887196373   -3.25419543385234
H           2.69682510347805    1.37892212116691   -1.95150547809707
O           0.82020539232445    0.32425420887702    1.87518176821306
H           1.70942740151087    1.34205937381929    0.64549619552950
H           0.01757894072654    0.76090374630117    1.53816674405834
H           0.76119409160151   -0.59109863912109    1.55786229244992
N           0.70388808955877   -0.44729763182710   -1.52104549298072
H           1.22426093602212   -0.55953034133926   -2.39076216601343
H          -0.33115762890947   -0.23884229227776   -1.67631350493919
H           0.76088646097582   -1.27869405524888   -0.91665485044832
H           1.11605859469372    0.38461222314109   -1.01790958580764
