    26
        -50.46728533  Gyration_radius:  2.48763446428 Dipole_moment: 3.871
 S          -2.09676509109615    0.17553433475646    0.42955849253751
O          -1.94861272974848    0.25279492826304   -1.02493957456112
O          -1.06677590046895    0.93286778876452    1.10438540038696
O          -2.23410000791923   -1.19029014450883    0.89101188495613
O          -3.47617771286346    0.88384485370118    0.77227579516897
H          -4.08876817386575    0.15534259800417    0.77137381057731
H          -0.72690399485978   -1.66781425099567    0.51495423624698
O           3.12599381362270    0.75057915795583    1.27806803283154
H           3.88262674454247    0.28491332837749    1.63575690529781
O           0.17843708513096   -1.84812184585549    0.16979888648937
H           0.03712451471997   -2.20078312031585   -0.71997924745951
O          -0.32579679521969   -1.30120258771065   -2.47022819898103
H          -0.95367860309825   -0.72342319308792   -1.98596633961840
H          -0.77710367941998   -1.55109524697043   -3.27712021490089
O          -0.21654624267238    2.22151873870716   -1.08905843187338
H          -0.33099326759342    2.47163287480015   -0.16436234768684
H          -0.95810619595179    1.59618470715008   -1.24267690879520
O           0.95380737566021   -0.21238325119936    2.43751373145230
H           2.35017325402708    0.49084985107796    1.83845837503912
H           0.19291123533940    0.29452292929338    2.09036547500744
H           0.83832258352968   -1.09813886539457    2.07872489328717
N           1.54726626557840    0.25817090059033   -0.81940812230604
H           1.89372405069848   -0.06098116534345   -1.71885568758349
H           0.90662820639769    1.09657737795293   -0.96175549958274
H           0.97991029242718   -0.51759442724689   -0.38554826315472
H           2.31340297315465    0.50649372922473   -0.15234709277439
