    26
        -50.46728516  Gyration_radius:  2.48762008471 Dipole_moment: 3.869
 S           1.85534563745004   -0.61175748767835    0.89154158401177
O           0.84797431764407    0.16717888454688    1.57583038576714
O           2.17671317535948   -0.03645047238093   -0.41585643820233
O           1.56095073320424   -2.02714194512353    0.80566707495256
O           3.17941923735335   -0.50188407472922    1.76126597173825
H           3.60082860183913   -1.34055260341246    1.60297649190916
H           0.17631122776925   -1.88238945968265   -0.03238752747024
O          -3.14156157560654    1.21420339793935    0.78927408741359
H          -4.05079168321297    0.91353019972284    0.77643884159634
O          -0.59748365242592   -1.66148410019622   -0.60145287545091
H          -0.26687268492312   -1.73868614009784   -1.50740411169940
O           0.98807202482559    2.27665385923861   -0.07515158979976
H           1.59630490730324    1.53882122071075   -0.29941914576946
H           0.86452295434570    2.17522581102464    0.87624551681873
O           0.78923850339733   -0.48500667456600   -2.65452283573959
H           1.40364095367401   -0.58891617453492   -3.38178276482671
H           1.34399498689395   -0.30863542841800   -1.86480437457065
O          -1.67147615784007   -0.67703399036390    1.90843897161932
H          -2.64354105457700    0.56778091525211    1.35269330314175
H          -1.63668944185988   -1.39375549394611    1.26677920319266
H          -0.75409470730376   -0.34082742485399    1.95141844150274
N          -1.13803662223590    0.95918575854542   -0.95910131677915
H          -1.25310778572652    1.06271102977442   -1.96255707383943
H          -0.90153531931890   -0.04737437141117   -0.75198042445435
H          -0.32614806792878    1.56419222107486   -0.62946987756447
H          -2.00197853809882    1.20241256355480   -0.42267953747831
