    26
        -50.44710516  Gyration_radius:  2.5383006921 Dipole_moment: 5.500
 S          -2.23647762710640   -0.04297720202596    1.41785548508224
O          -2.83450227096794    0.66532743384666    0.30073617256822
O          -1.29889023905689    0.73294849119743    2.18433154516232
O          -1.64642075774974   -1.31966389657354    0.97561394411706
O          -3.43001776060247   -0.43209561056175    2.38069984901812
H          -4.11572768603615   -0.65487695512074    1.75968165404035
H          -1.18389474866754   -1.42187725381073   -0.36703745692236
O           0.84181971043502    1.79397710514887    0.56192122572327
H           0.21580845176347    2.18472625363803    1.18023356738181
O           1.75995099021244   -1.70375619149717   -0.84730399085951
H           2.27204198263592   -2.34748609391227   -1.33780680491245
O          -0.72612466099277   -1.34190278871608   -1.31558382352429
H          -0.76468712699212   -0.27358804752613   -1.47030300540825
H           0.25393926955560   -1.56850164467918   -1.15792807376420
O          -0.88359452964580    1.13001558950102   -1.35215374044187
H          -0.19003428104876    1.44247536312967   -0.71875400621285
H          -1.72131642664045    1.13032890579246   -0.82654525223019
O           1.06425753892161   -0.50456720813467    1.86330977855331
H           1.10012885908795    0.95216343659993    1.01070028002987
H           0.17620098340856   -0.24546838755143    2.17303182204293
H           0.95530981698579   -1.30821524795368    1.34799670958733
N           2.52593433799473    0.71507544691102   -1.61207126400785
H           2.05857536185246    0.98631814436597   -2.46897217776090
H           2.11755146034306   -0.79407388146372   -1.08524459352302
H           3.51446125951240    0.90401542665346   -1.72010070125858
H           2.17570809279522    1.32167882273780   -0.87630713247954
