    26
        -50.46367859  Gyration_radius:  2.49929632181 Dipole_moment: 4.792
 S          -2.02758205998316   -0.25269583942229   -1.01547299238850
O          -0.96307131013142    0.23158283575148   -1.90665784208499
O          -2.16016667944618    0.55394656958637    0.16922126232562
O          -1.86284631435642   -1.67348135357330   -0.76042739938286
O          -3.37378484149428   -0.10052609734069   -1.82937930250874
H          -3.30190395598222   -0.79764215241495   -2.47287540663006
H          -0.60386876271560   -2.07691727134065    0.12798191443257
O           1.37214019515938    1.73958415783345    0.72123253125836
H           0.74752450296970    2.29971395775898    0.20769488202371
O           0.23094051339409   -2.23522809062133    0.64419645373710
H           0.26514176278248   -3.17592645506394    0.82272460006674
O          -0.65947234833499    2.65709205258054   -0.75873121013857
H          -1.39221408192001    2.52311667685621   -0.14711806072634
H          -0.73681291664534    1.90356989671494   -1.36947420947800
O           2.91162531001200   -0.58913602629994    1.49369028190195
H           2.89441377203672    0.37314886134704    1.49826318143553
H           2.33845070313663   -0.86539580236449    2.21172608177624
O          -0.27488672454238    0.12410989328967    2.04381316938562
H          -1.07189135527110    0.33431033933298    1.52228575434977
H          -0.05042864297431   -0.78182140620668    1.78584292482316
H           0.79957707130881    1.27736335313107    1.37934605707565
N           1.40213667785199   -0.30757587480024   -0.89588308296896
H           2.19712859945458   -0.43614976087948   -1.51179091121877
H           0.50321833195040   -0.14946741255592   -1.42532907617019
H           1.27856969282276   -1.13050749048215   -0.27804357397793
H           1.53806288092565    0.55493245917893   -0.25683601691245
