    26
        -50.47250250  Gyration_radius:  2.48726283929 Dipole_moment: 2.867
 S          -1.92746663028313    1.11058207789592    0.44251824666197
O          -1.17535594400689    0.14911610786300    1.22588987421452
O          -2.34862526075714    0.55839604290087   -0.83913135044623
O          -1.25405142070603    2.38634047377594    0.29097122386484
O          -3.25087630555201    1.40749779519935    1.26121405453661
H          -3.59618724014390    2.15485178755374    0.78515117679974
H           0.20607695122905    2.23859361070901   -0.33012938984305
O           1.13620050673908    2.12252653558147   -0.65822267296784
H           1.37100123060434    2.94908498152117   -1.08256123495904
O          -0.39833281072377   -2.40753735958802    0.84127601690412
H          -0.78538958919164   -1.59287883452242    1.21185316239728
O           2.19786599355582   -1.48825747659344    0.73908609255193
H           1.93299363067742   -0.63836331634798    1.19732369570707
H           2.98671182924375   -1.80055351969998    1.18256635867703
O           1.60135847276642   -0.36036210161963   -1.70189085762066
H           1.97687107399950   -0.82066319154971   -0.92976247455941
H           1.48084363970595    0.56504884697243   -1.41619702858805
O           1.36966906602796    0.76063971806428    1.75937205273871
H           1.52371353344495    1.40329923044078    1.05149980719133
H           0.40570495318923    0.59538691138259    1.73280232411406
H           0.56538138828040   -2.27094119623441    0.89324393827684
N          -0.81265641170928   -1.42109571722988   -1.55896138931006
H          -1.15595804112750   -1.97841463109218   -2.33251325685413
H          -0.70886521419145   -1.99128540972174   -0.66576526767201
H           0.14122439195723   -1.00198996885167   -1.76636252257171
H          -1.48185179305900   -0.62902139681434   -1.33327057927400
