    26
        -50.46619296  Gyration_radius:  2.55632341668 Dipole_moment: 3.262
 S          -1.85101571059591    0.32182581435339    1.33120770162568
O          -1.31313810756932    1.40988519861041    0.54068633142922
O          -1.21507309550661    0.12807423412222    2.61234968165626
O          -1.90271056298479   -0.91970847084021    0.54805266704456
O          -3.35957855885715    0.69527436254068    1.65191947095531
H          -3.42584690672835    0.40753806089673    2.55583088251024
H          -0.59754336890265   -1.85099456524541    0.39898345992264
O           1.31666442439496    1.39954815304581    0.25310817549350
H           0.37935824722760    1.64293026189472    0.40390494055012
O           0.23766156256941   -2.36032052761904    0.23124007638911
H           0.00872741384938   -3.28476255763408    0.33513615312772
O          -1.80774811303927    0.19122406549800   -1.82747181411763
H          -2.02148710003636   -0.35868485513577   -1.04310392106671
H          -1.80947772244123    1.08359165981893   -1.45822049998491
O           2.91043740284103    1.26451123790750   -2.13290137068177
H           3.64622658518372    1.83282929728629   -2.36190868236427
H           2.57489390838501    1.57874604258180   -1.28140609321312
O           1.32496242645208   -0.49842622532241    2.07299812837234
H           1.52696050991695    0.79782571332884    1.01005117498961
H           0.45074505635693   -0.26217995753556    2.44277841039420
H           1.17411943165283   -1.30287798194880    1.55804601513446
N           0.75938960411404   -0.40475604163192   -1.59694471496828
H           1.43387539201806   -0.33075824334897   -2.35558350193740
H           0.76924593255783   -1.32463683438805   -1.13061118594487
H           1.02481584137818    0.32941260150485   -0.86490847920687
H          -0.23446448231438   -0.18511041272214   -1.89323300611759
