    26
        -50.44710525  Gyration_radius:  2.53792443515 Dipole_moment: 5.502
 S          -0.51429195668842    0.53539205701900    2.54188576187749
O           0.78237174567158   -0.05529807554784    2.81959419118474
O          -1.52133803672696   -0.40279342548037    2.12441685551141
O          -0.38942948074900    1.65296053230191    1.58836036127503
O          -1.00197793492127    1.18239859484304    3.90065679353984
H          -0.18904894647506    1.52926045113790    4.25336383077722
H           0.68691451036815    1.62990861631508    0.65716264958991
O           0.05221953501510    1.28399630910922   -2.25004976080358
H           0.28468031182510    1.79744839096987   -3.02437976406398
O          -0.72292437607947   -1.92001293884171   -0.19863593126852
H          -1.04905041196392   -2.15819015936804    0.67532828071381
O           1.64279863808509   -0.94785732297930    0.53562485881766
H           0.82099605031065   -1.38564530418185    0.19959562340341
H           1.45645600663579   -0.76354978147018    1.48924261434209
O           1.40892558151144    1.43768487029497   -0.08962766189731
H           1.62846203758771    0.39765728171012    0.10297819363373
H           0.89473842465767    1.45898751414718   -0.96807055441985
O          -2.14662089158922    0.30746325315605   -0.39094458864782
H          -1.67301359049858    1.10414639028707   -0.64456246609822
H          -1.28308260765063   -1.14217643709498   -0.43952270906893
H          -2.09862102896466    0.24770444272877    0.58159271244872
N           0.62955624798175   -1.25541536025896   -2.73983914958523
H           1.61159920394916   -1.43944633638710   -2.57241158108988
H           0.10616353541123   -1.76214401086338   -2.03182937922906
H           0.19802312983814    0.31539166979687   -2.47953756826615
H           0.38549432345795   -1.64787122132648   -3.64039161269369
