    26
        -50.46619276  Gyration_radius:  2.55634144281 Dipole_moment: 3.283
 S          -1.81804795972414    0.49487040197045    1.32368310411515
O          -1.10984564642700    1.11864432513415    2.41572215997597
O          -1.44925365541206   -0.88114571618904    1.06236588074288
O          -1.75306301687610    1.29799512671577    0.09542164222336
O          -3.34573856047883    0.48156626404030    1.75248102420123
H          -3.34370178240953    1.13731906877011    2.44104285105939
H          -0.35240099117320    1.90920543616421   -0.41144036241792
O           0.53049096389672    2.19262573111862   -0.76551174434059
H           0.42011905238100    3.09867953275991   -1.05652847932227
O           1.14824363857502   -1.32566405591378    0.82662843949376
H           0.19580688234293   -1.36380248776812    1.05429508056337
O          -1.89364533096119   -0.69728548333769   -1.60313180354928
H          -2.00572294955248    0.14999226316920   -1.12058879042699
H          -1.98723194801767   -1.34886870464377   -0.89646080618021
O           2.64460495167506   -2.39177176259791   -1.38173536679964
H           3.29442668441654   -3.09415371510474   -1.34624109212133
H           2.31073791702118   -2.28023766955555   -0.48038306623221
O           1.46218255223125    1.13616142659223    1.69529165441721
H           1.46134225809606   -0.49705401543939    1.26788121552059
H           1.38781657990644    1.66790002202579    0.89104116578137
H           0.58228375436910    1.18733493801481    2.11955039958759
N           0.73422211557341   -0.39203886470779   -1.61164610875134
H          -0.29053916903928   -0.58584636618042   -1.80135592500702
H           0.94024371220172   -0.78568169584589   -0.63798491811524
H           1.36198250278858   -0.85760417505526   -2.26362805054890
H           0.87468744464153    0.62886016553807   -1.56876809383120
