    26
        -50.46287582  Gyration_radius:  2.525124078 Dipole_moment: 1.500
 S          -1.94206424670181   -1.02993143234611   -0.06248801128797
O          -1.11683149191546   -1.49369747396494   -1.15788911391142
O          -2.46026541374716    0.31446196499514   -0.26009607158280
O          -1.29216268126422   -1.15697966163495    1.23890265748584
O          -3.19470627068879   -2.00214730930090   -0.02840381881414
H          -3.74236494776447   -1.66187280611201    0.67268207086667
H          -0.78682237906280    0.36115122626157    1.52686510522646
O           2.57341367561428   -0.54273284401359   -0.11952773400163
H           3.28864339655819   -0.92016305575477   -0.63267471289912
O          -0.58269489362438    1.32768801940490    1.50376925818308
H          -1.42347936264610    1.72582768842185    1.25852638142139
O           2.35849982859773    1.76694105027015    1.65966322905470
H           2.63939722151779    0.89115419046901    1.37163788906884
H           1.51834815176664    1.64777733790389    2.11221289603694
O          -1.03056263976725    0.85407777853098   -2.39349992592426
H          -1.73291131759921    0.89197394659198   -1.70987548687925
H          -0.90600347610547   -0.10330779757615   -2.48059147614471
O           0.85515895462170   -2.45532190064299    0.29935461964216
H           0.23399640459605   -2.30756391341448   -0.44016166199695
H           1.95486927625974   -1.30087535165888    0.08797871352509
H           0.31344987905276   -2.20499951066726    1.06190553289217
N           0.90467126008809    1.49268236619234   -0.72302891535247
H           0.20990624730332    1.30300929651959   -1.50787706292254
H           1.60089427369526    0.71732763353437   -0.62949871347928
H           1.39687035692451    2.37426143518735   -0.83334540011499
H           0.36275020427596    1.51125911281539    0.18545975191314
