    26
        -50.46287583  Gyration_radius:  2.52502620044 Dipole_moment: 1.502
 S          -2.11764192151926    0.36235504511030   -0.46905624350063
O          -1.82224105068708   -1.04480240229863   -0.63775225732556
O          -1.56816404979848    1.19737744825755   -1.52545849473091
O          -1.74954839688075    0.87164007195236    0.84900354804676
O          -3.69604710259264    0.48325440023098   -0.56525597301517
H          -3.86931572279529    1.41680544567470   -0.48943236461205
H          -0.34337637265666    1.63121883926570    0.54991192323654
O           0.46893897938506    2.03011426215445    0.15331498986656
H           0.13435920165271    2.48566845938425   -0.62520429908410
O           1.49842924561108   -1.63595516347027    1.41745802435963
H           1.76593853276596   -2.54177882708964    1.57613511723408
O          -0.13019807004570   -0.68699512407736   -2.65155080700572
H          -0.62369446771255    0.14906178633201   -2.51172099198241
H          -0.69603068172063   -1.31883421382362   -2.18217900525149
O           2.90446045019594    0.92582674502803    1.46376518557853
H           2.20626745862590    1.58697355743897    1.44704016238531
H           2.51041717595609    0.12252604465835    1.82199968714133
O          -1.06938161839187   -1.52283082078864    1.84046209950464
H          -1.30096039170536   -0.59783271946211    2.00895182521996
H          -1.40946192969491   -1.64854888326567    0.93322188055104
H           0.52540762399652   -1.59335929440626    1.64528695576195
N           1.69259538692555   -0.14693909112238   -0.82704231157196
H           1.06774334365451   -0.44722636245681   -1.63581984516014
H           1.66445853189885   -0.83774186335775   -0.04181601738753
H           2.65731664453794    0.00485141938133   -1.10612515811055
H           1.29972920099938    0.75517126075174   -0.43813765014967
