    26
        -50.46364045  Gyration_radius:  2.49488198382 Dipole_moment: 3.037
 S          -0.86087658652498    1.67904423779843    1.00467186291920
O          -0.08271741788196    1.23009700332545    2.13954199608686
O          -1.34902000709747    0.55273056711652    0.21026621811277
O          -0.16602292005164    2.66668821568823    0.20247139211911
O          -2.16155981125013    2.37887641948274    1.56866360278167
H          -1.79714803014760    3.11534954783685    2.04735779360957
H           1.15664181310873    2.02528344395850   -0.41738007810520
O           1.93512618728774    1.54186338738459   -0.80193312464858
H           2.53307963806402    2.21997171199002   -1.12112965041328
O           0.14790954356049   -2.36075470996318   -1.76084760722596
H           0.83446890600592   -2.72455783037191   -2.32017566569058
O           2.15945474625795   -0.00417551470075    1.45633616440152
H           2.32885985154230    0.47728801629318    0.62747925240689
H           1.48547789814114    0.53881725459505    1.91650606635811
O          -2.44319935861227   -2.07823989504109   -0.14209446246818
H          -2.01241031717740   -2.30408746907303   -0.97135977709544
H          -2.45639941025407   -1.11556230087728   -0.09779859595895
O          -0.08821766576430    0.21756973067670   -2.15693883724000
H           0.74651405125801    0.64996174207218   -1.91554757977003
H           0.03170734606290   -1.41078425169629   -2.03557059349252
H          -0.69827777963015    0.45076090559986   -1.43393556627045
N           0.16231378317774   -1.57403793029968    0.81251336043272
H           1.08203423668102   -1.12478863844667    1.10819599422283
H           0.23603695265059   -2.05412138298734   -0.11444022697064
H          -0.20770799900160   -2.21106586249278    1.51096714910297
H          -0.51606766040442   -0.78212641790752    0.68418091279346
