    26
        -50.46172541  Gyration_radius:  2.64680456484 Dipole_moment: 3.641
 S           0.38990186005933   -2.19367567205667   -0.93978244295840
O           0.72600308809186   -1.47191120076921    0.29617839402491
O           0.82518927543718   -1.47070742207645   -2.10516521685885
O          -1.01271853837211   -2.57430922512405   -0.95226394077053
O           1.20030745313610   -3.55321400927657   -0.88782512785957
H           0.65022773349218   -4.08396375387619   -0.32076870359842
H          -1.87715876019738   -1.24232430412617   -1.00641912132351
O          -0.35293068457559    1.97505450949269    1.98098323233709
H          -1.08382331580867    2.59351067729784    2.01129906493201
O          -2.36335528914728   -0.37454589260274   -0.98313208460101
H          -3.24331615471476   -0.56171276549628   -1.31481431796376
O          -0.37244067474277    0.87177131312320   -2.42612002429216
H           0.08354003875302    0.02180212705133   -2.59409525581563
H          -1.22007367278712    0.61181644329589   -2.02408439829588
O           2.51316824145601    2.28023073329179    1.83190663217009
H           3.07317690724881    2.04973797608829    2.57378202805298
H           1.60483183564838    2.27987933050236    2.16171821407753
O          -1.36032317617444   -0.40479807344356    1.61672676769952
H          -1.92923683373192   -0.31523514529746    0.83552689211383
H          -0.59788685090406   -0.92451072018905    1.29580593774185
H          -0.75753684736478    1.06234170453324    1.99848451768837
N           1.03481744847902    1.10181485960756   -0.21879202511729
H           1.97834720107542    1.48345270917413   -0.19278509701878
H           1.05275627964925    0.06890336150139   -0.00235472001935
H           0.48347624325164    1.57048920224573    0.52788185154374
H           0.55505718273851    1.20010323712628   -1.16189104589227
