    26
        -50.46172558  Gyration_radius:  2.64714616402 Dipole_moment: 3.650
 S          -0.79019578549518    0.81772640670483   -2.13518406683579
O          -0.93591825183375    1.18102247694265   -0.71809531626645
O          -1.16931365267792   -0.55052100481306   -2.36865140953574
O           0.53043610680090    1.17247655050555   -2.62753639212875
O          -1.80371579464977    1.73877997281455   -2.93038475459041
H          -1.31479656049765    2.55288089545259   -2.99426887339477
H           1.59352035818665    0.27432267348416   -1.86107261956357
O           2.21334727476732   -0.27456705700836   -1.30925391604681
H           3.03199463411183   -0.31954713385585   -1.80637461860696
O           0.77721367147074    0.07905580149286    2.70831494740329
H           1.59912923189072   -0.27477416045372    3.05019505875629
O           0.36996860779680   -2.31685839464112   -1.13004582169368
H           1.18615124213515   -1.78739990391034   -1.16406425831093
H          -0.22536171913939   -1.88102014875430   -1.77370087937314
O          -2.00420009672261   -0.45307740754952    3.26461669015032
H          -2.55169903918264    0.19318150452092    3.71165045466843
H          -1.09123655416857   -0.14852186714970    3.35204933578268
O           1.36501842919288    1.54089531260278    0.62777527063921
H           0.51217751810844    1.61514271884660    0.15704229404801
H           1.02910649361251    0.75390628081053    2.01676185828782
H           1.89648304625802    0.95941888515290    0.06087582062235
N          -0.85518143810475   -0.99372653984771    0.78144154350872
H          -0.42010087498554   -1.70405774592449    0.12158583007894
H          -1.02703575529049   -0.12420574420464    0.20835117228323
H          -1.72175722884813   -1.30741194577010    1.21417859384126
H          -0.19403385274034   -0.74312042544843    1.54379405627414
