    26
        -50.46172586  Gyration_radius:  2.64826167665 Dipole_moment: 3.665
 S          -0.04375975742817   -2.34011095205491   -0.62097093958353
O          -0.39412184754881   -2.56123197911239    0.75688017366346
O           0.87501512475578   -1.20160944188704   -0.76534346282973
O          -1.17787562096231   -2.20755397460912   -1.52012864674443
O           0.75273818656315   -3.61314655527971   -1.12399110828369
H           0.65487859497739   -3.54093789105228   -2.06801361472226
H          -2.01865882621810   -0.94052146149470   -1.05993294682904
O           0.67461323248854    2.73199724076796   -0.14324229102071
H           0.03973568701682    3.44891228023062   -0.11885521979435
O          -2.47019077470065   -0.10640382863743   -0.75933603536584
H          -3.36787904728925   -0.16376254825387   -1.09139308278598
O          -1.73321931873580   -0.55700748708044    1.85839383210049
H          -2.18604155608532   -0.27371123850780    1.04448402535675
H          -1.38927382426634   -1.44810559532980    1.64321582679852
O           2.92102445114137    2.01516264496529    1.52244888533011
H           2.36177469183284    2.47246272493501    0.88057239072736
H           3.82218478711323    2.10082127700211    1.20994847167225
O          -0.17855550208329    0.99887817616465   -1.89803410127298
H          -1.09324937896194    0.81119053287568   -1.63348647701216
H           0.42147817697591    2.16014758241519   -0.92174935454907
H           0.30722043478014    0.18398185307147   -1.66465169978990
N           0.64966949352273    0.40960462146743    1.31747838518996
H           1.41266210450348    0.43030524773865    1.99124630528486
H          -0.28295081623121    0.11095339408320    1.73026352705888
H           0.57938666743143    1.35514827761157    0.89056886643745
H           0.86339464740435   -0.27546292002885    0.54362827096313
