    26
        -50.45792500  Gyration_radius:  2.5924182425 Dipole_moment: 3.543
 S          -1.93174413357814    0.52604028131553    1.03240414622375
O          -2.18610821114056    0.24652006508582   -0.37819855121660
O          -0.51060138111497    0.66814608274470    1.28792503235605
O          -2.61467792912917   -0.38123390149665    1.92464844367616
O          -2.55016395074481    1.96945369294084    1.31277048483992
H          -3.47872330177390    1.78285271533059    1.41040372695845
H          -1.60728952663269   -1.65191439196629    1.68385940282605
O           1.62492828545809    1.74847122358105    0.03218489100282
H           0.84110313141399    1.82916287444653    0.60072398921164
O           0.61325608361466   -2.47604955535639   -0.58765279165042
H           0.45377484163519   -3.32740768535898   -0.99677161748935
O          -0.87861736628446   -2.30458702762292    1.58033896842221
H           0.00235644210696   -2.42955902504147    0.19127969381964
H          -0.32109500832147   -2.18906859905346    2.35383697937583
O           1.51049688940858    2.04935965446804   -2.82217352101380
H           1.83634535351865    2.81139817566116   -3.30187907176797
H           1.71930290841210    2.20030877183368   -1.88943756774500
O           1.90904667691937   -0.64394383887824    1.28884086428421
H           2.15641700767473    1.06494182787459    0.48045324862336
H           1.02001001866264   -0.30140063289121    1.48227793401544
H           1.78026100449703   -1.39390719614695    0.69868690072131
N           0.12620402638449    0.03196029165331   -1.50252985002121
H           0.39103708647541   -0.96094290288058   -1.35349282259480
H          -0.87076766737260    0.15338326418261   -1.13354463210088
H           0.74194211488715    0.64812450837699   -0.92328976317622
H           0.22330660488403    0.32989133779256   -2.47166452764516
