    26
        -50.45792499  Gyration_radius:  2.59238772965 Dipole_moment: 3.546
 S           0.64204374813864   -1.91541934956437    0.99689496502573
O           1.01115573330442   -1.14590704199826   -0.17641709709817
O          -0.67099355959162   -1.51525123693720    1.49545792156490
O           1.65249450842301   -1.96117310580963    2.02764497254281
O           0.47567458444622   -3.41359068192494    0.47492705218873
H           0.51033434272675   -3.91956818956657    1.28073846645494
H           1.85572198493618   -0.33833388822623    2.14248486703332
O          -0.22855164215816   -0.16859800522886   -2.37026559221539
H           0.20908256258747   -0.89196620241369   -1.89138423227088
O           0.13044315294302    2.30249936404355    1.23782099411365
H          -0.06523167559333    2.90426865442228    1.95699952802328
O          -3.05999429727053    0.29427933728713   -2.23528181191339
H          -2.17832747290374    0.08059888245289   -2.57205669667006
H          -3.67674019629844    0.09973636973038   -2.94151271728803
O           2.00315127796034    0.62906594828720    2.04257565384387
H           2.77972588877829    0.71234052485282    1.48353507200605
H           0.79859571955391    1.66237956973630    1.59270607434067
O           1.61598880155892    1.37354205378317   -1.10453447045284
H           0.43499142237586    0.54555713079846   -2.35078075570072
H           1.22401268199549    1.97179307485957   -0.45973063496402
H           1.61508571919627    0.49515313907152   -0.68786304757180
N          -1.43778195076089    0.45496338267257    0.01659884334766
H          -1.22588189201764   -0.38466588643167    0.64508881522044
H          -1.01370120390488    1.29001690432874    0.46501129088206
H          -0.96779882594096    0.27474615238987   -0.90043065398306
H          -2.43349941249860    0.56353309938174   -0.16822684650910
