    26
        -50.46147041  Gyration_radius:  2.59121709806 Dipole_moment: 4.224
 S          -0.43868849104632   -0.14588070382638   -0.58933201045587
O           0.48118975085383    1.09714600387002   -0.87724400183679
O          -0.19455485343589   -1.14996267019283   -1.59642466169474
O          -0.12460872161463   -0.58005371617686    0.76487353999105
O          -1.80117363743722    0.41249698827383   -0.63434437164962
O           3.59804285727710   -1.43140797173672   -0.94150655050399
H           4.19768429527566   -2.09385068066458   -1.28795163311235
O          -3.24746129115264   -0.12474166555105    1.58220608746826
H          -2.82357446174353    0.00526866757191    0.71040417937506
H          -3.38780047833452   -1.06877075027322    1.66874636346609
O           1.40180814409485   -2.64477843062874   -0.04368251832018
H           2.85551904999467   -1.92640586878242   -0.51819257814747
H           1.04272922179186   -2.07365067683770    0.65124184597534
H           0.82296039016303   -2.43520951304437   -0.79520461084839
O          -1.04731491475639    0.97508777462294    2.66614100898367
H          -1.12952454234283    2.04282753556550    1.62607212665166
H          -1.95523370258305    0.61135708734139    2.62138977966673
H          -0.53256813775505    0.33434907392242    2.12081268319397
O           2.03233324676598    0.00635314724706   -2.56397109288482
H           1.32027781528373   -0.64556945001289   -2.65234082245562
H           1.17317839797400    0.78654997513185   -1.54836962553337
H           2.72904054333060   -0.43245932510220   -2.02190952645865
N          -1.22607646831469    2.55612703170145    0.65631192864444
H          -1.85652693772568    3.35094915949705    0.68464502810475
H          -1.58377694587006    1.76531159930341    0.01823422238668
H          -0.30588010866269    2.80891739879126    0.29939521004716
