    26
        -50.46203221  Gyration_radius:  2.57185165324 Dipole_moment: 3.173
 S          -2.40751397918136    0.33133686361295    0.53919044420225
O          -1.92943536779851   -0.96859895771704    0.96875696725291
O          -2.39384558646388    0.49210122214116   -0.90902789778288
O          -1.71294771185267    1.41874575325427    1.21061522546916
O          -3.92901304888424    0.41147601071408    0.97279571999716
H          -4.25708442993049    1.14933409373745    0.46851922284558
H          -0.29182762856245    1.87508950881956    0.59135009199552
O           0.54130744888152    2.07411490166628    0.09281140590433
H           0.36391990780959    2.87944356132788   -0.39505950691169
O           0.07009841108361   -2.49296978860539    0.03546353190825
H          -0.80252216813419   -2.22731384346623    0.37918830296281
O           2.57945971057298   -0.46091495937995   -2.32241533245737
H           2.68024205303616   -0.34014652110359   -1.35856963545816
H           3.34897942137138   -0.94986067628390   -2.61309101914998
O           2.51276942887177    0.06936471199504    0.38699436863667
H           1.85791661712395   -0.25214999166809    1.03474158538118
H           2.38605808095478    1.02336977542133    0.37991413879319
O           0.42159359460741   -0.40406868604315    2.10886331785663
H           0.66720106019721   -2.44994839266496    0.78812509337163
H           0.32550622601179    0.43910045799591    2.55628024125518
H          -0.47549013426865   -0.61117528295294    1.77933143599083
N           0.08683259825805   -0.20290324316989   -1.36098067199964
H          -0.94030127131029    0.00519612018787   -1.43224344817439
H           0.59558741118655   -0.26265753676212   -2.24647704077511
H           0.49721920770858    0.57488737334153   -0.80160446416430
H           0.20529016874039   -1.12085245438927   -0.85347206696426
