    26
        -50.46027719  Gyration_radius:  2.45763608219 Dipole_moment: 2.453
 S          -1.82238684250607    0.44911522841886    0.70200809789975
O          -0.89071064744018    1.10327225235312   -0.20751864407565
O          -1.69229770527312    0.86798126929441    2.07183156288500
O          -1.77952856016283   -0.99782177357343    0.50721901478071
O          -3.27860093226327    0.89310611937539    0.24030601184993
H          -3.54930185695371    1.48295630694901    0.93671640003633
H          -0.46442143429271   -1.83914674639459    1.02712820394954
O           2.71335707110749    1.14307712522118    0.12672567635294
H           3.40603714050359    1.66512214495259    0.53226206256975
O           0.42895376227458   -2.22333480807339    1.19597093005086
H           0.29627039692254   -3.15951996049397    1.35157144030307
O          -1.35733396374008   -1.52794360036711   -2.08668170531813
H          -1.86533589514458   -0.89579995056357   -2.59794232625329
H          -1.64750042929416   -1.41665875261151   -1.15706899358032
O           1.11070708980663    2.04406865020790   -2.00814855212912
H           0.26806303354364    2.05597902055944   -1.54217516774612
H           1.78117686837329    1.98403778963888   -1.31279385699879
O           0.95889650437889    0.41276450197575    2.04524915522730
H           2.06855001921514    0.95253135120060    0.84127340583542
H           0.03651764597627    0.70543761490773    2.14786853077801
H           0.93980103293862   -0.55072189110909    2.08795198433128
N           0.90356433909380   -0.64719761766396   -0.99432951168100
H           0.32749277531107   -1.10187954319901   -1.73053464163740
H           1.06717523941641   -1.31180694318458   -0.22026290530348
H           1.76559856574151   -0.21570050712110   -1.32949252083665
H           0.27525678244543    0.12808268926761   -0.62713367126771
