    26
        -50.47071325  Gyration_radius:  2.41594621826 Dipole_moment: 4.165
 S          -1.51470194510374   -0.05793267195633   -1.34781305602336
O          -0.39329918242909    0.62758183551316   -1.94333826220121
O          -2.08302845649368    0.62057681083668   -0.19471049561037
O          -1.20415055181720   -1.45705022640202   -1.04734707605611
O          -2.65552669753468   -0.08361329806489   -2.44528849966252
H          -3.41760855080256   -0.34665407531288   -1.94075103777212
H           0.35398401288115   -1.68388336258578   -1.52897639420338
O           0.64062189038955   -0.47289962324551    2.40035234023732
H           0.79863718289984   -0.81891713769840    3.27933883248072
O           1.28403581897211   -1.53204840840397   -1.81699991540572
H           1.19230207255344   -0.82726536024560   -2.46807565838188
O          -0.39736417719709    2.01495278792584    1.38936864540303
H          -0.06050824816888    1.29023855364724    1.93286540112180
H          -1.09763704653499    1.62718997549953    0.83017143834825
O           1.34181375802490    2.13432686662947   -0.59617922881570
H           0.72478365330558    1.75751217437405   -1.25573005584629
H           0.75775616709359    2.35497777658340    0.16791970370699
O          -1.63854615925530   -1.36437179220306    1.52933950061704
H          -0.22699157320009   -0.87275873476301    2.09673499046136
H          -2.09243305093333   -0.53350010027382    1.31858390028660
H          -1.44295672152470   -1.70899088736715    0.63520797713017
N           2.25067893572259   -0.14728799932301    0.21680997318549
H           3.24909618292591   -0.22943671957899    0.37181313259775
H           1.72241592330100   -0.35119011921891    1.08694916222429
H           1.97914971994152    0.85873067384063   -0.10848583905819
H           1.92947703297961   -0.79828694820154   -0.56175946875958
