    26
        -50.45059461  Gyration_radius:  2.46314559435 Dipole_moment: 4.140
 S           0.15962130498988    1.16260626167040    1.62084009435339
O          -1.33265928125451    1.41564586246587    1.34885822419718
O           0.18682764635708   -0.31881142281785    2.08864900505536
O           0.86918379816727    1.24207197558787    0.35828735439122
O           0.64842306487978    1.99198096141531    2.65735808806323
O          -0.93440350729647   -0.99121850039782   -1.79780894147456
H          -1.06583168455753   -1.48401870506512   -2.60824672186286
O           0.28963022619916    3.08988161395116   -1.49003713773399
H           0.70703033047372    2.46607374402679   -0.86582005334372
H           0.36859971328676    3.96118606787776   -1.09874025633128
O          -1.80573010548791    1.48258676058262   -1.10867205859118
H          -1.15558788431126    2.14703827589734   -1.42711337169021
H          -1.51396961227884    0.62470014271392   -1.47841912832815
H          -1.54273457052473    1.45963839241982    0.32511380953565
O           1.55553536854528   -0.85647720533947   -1.21198331378919
H           1.50677684840604   -0.02446139815035   -0.71114693993875
H           1.73831420082546   -1.54893333806986   -0.53486008905182
H           0.06629512151668   -0.95282956520859   -1.64174934021346
O          -1.71406953892930   -1.37813475261780    0.72621224839036
H          -0.53660746648239   -0.79511440022666    1.57625394135760
H          -2.43829925557564   -0.75773158442812    0.84754377788014
H          -1.47292873757375   -1.34397256786832   -0.22633471101885
N           1.85489233191518   -2.53843807749961    0.91277486638280
H           1.52675439738356   -1.87326528230676    1.60593225074294
H           2.78657233055342   -2.83227272453722    1.17731831204331
H           1.24836495077364   -3.34773053407595    0.95579009098259
