    26
        -50.46147046  Gyration_radius:  2.59172987931 Dipole_moment: 4.209
 S          -0.72819489371052   -0.12504258629426    0.10197462992727
O          -1.80646731577719    0.64003648680492   -0.47611943347169
O          -1.16603511706925   -1.04715423098827    1.16430984445799
O          -0.13638718168835   -1.08040251191313   -0.99843766359983
O           0.38344563482348    0.68720778148096    0.57632121955510
O           0.27805189216356    2.12580037758112   -3.36260749198086
H           0.01722586979681    2.82932806858188   -3.95881103265637
O          -0.14155805127275   -0.43945797347361    3.58786529340959
H          -0.45390998834157    0.41972645832947    3.87546679477468
H          -0.63617996796204   -0.64531730912924    2.76955325102263
O           2.09908225539433   -0.57411293752050    2.10989640918807
H           1.53933915030267   -0.50887766282179    2.91066730416128
H           1.56945576013029   -1.83356366155092    1.50818772454073
H           1.64904497013371    0.04057591982980    1.48346717556477
O          -1.25807188083405   -0.03582907020999   -3.02083303201996
H          -0.50917936747955   -0.75812360496284   -1.88345480537636
H          -1.86324017193763    0.34798763606368   -2.36797119797394
H          -0.65655344659632    0.69756915427301   -3.28974479969275
O          -0.33232571164609    2.84416452691140   -0.86998962001832
H           0.28936983135286    2.38201535885568   -0.28894662154211
H           0.14340160403090    2.47528705176514   -2.44870656630783
H          -1.13511857190370    2.30500225220462   -0.77547350837693
N           0.89964331871398   -2.56554209372302    1.02991782291490
H          -0.06046498241368   -2.08579531382597    1.12273685702025
H           0.92461415492701   -3.47955643029580    1.47031473777370
H           1.09101218682612   -2.61592571598182    0.03041669870316
