    26
        -50.46027739  Gyration_radius:  2.45766699671 Dipole_moment: 2.424
 S          -1.34394526277933    1.48608568286908   -0.02624742890134
O          -2.08378850389703    1.45707767970069    1.20684736645888
O          -1.24395372951353    0.19021055955536   -0.68529600508276
O          -0.02261047416070    2.09951052072672    0.07622861243529
O          -2.16634926755268    2.42368898460668   -1.01395732757490
H          -3.01208550835055    2.49372610032235   -0.58266069045796
H           1.07207819716091    1.48333532179306    1.14029470268836
O           1.71048045330835    0.93746615289127    1.65836996998440
H           2.41080707017620    1.52970794042232    1.93592685485809
O           0.07738128343838   -2.83493175877237    0.79609097923449
H          -0.21633125860973   -3.59149464378637    1.30418520825011
O          -0.67698152230087   -2.34159240695267   -1.87122672629756
H          -1.17498896261224   -1.53179294755289   -1.71791932992435
H          -0.57112658725784   -2.74052558358032   -0.99575060493895
O           1.41897264685323    1.46653648544549   -2.09248083969075
H           0.91328601526116    1.84976886938615   -1.34524378664476
H           0.83358405205119    1.50034925429734   -2.85086753858971
O          -0.60917552070364   -0.59284113255809    2.13437273006947
H          -0.24450716023231   -2.04539297155706    1.28168510664649
H           0.19822394949180   -0.10795161539031    2.34307224302960
H          -1.26605153436332    0.07610599849649    1.87364764173647
N           1.23331068890974   -0.66638623529741   -0.51193112907714
H           1.62069042606980   -0.10441658194697   -1.29605871051309
H           1.31658606292321   -1.67707138609497   -0.62669334398984
H           1.62870746235992   -0.33455648876257    0.38298952581793
H           0.19778695431251   -0.42461577824799   -0.51737744952335
