    26
        -50.46944031  Gyration_radius:  2.47827116747 Dipole_moment: 4.358
 S          -1.17946696987117    0.33992270971000    1.66963212976553
O          -0.74688267119901   -0.55657774890058    2.71251853697408
O          -1.70678923200177   -0.33749016043906    0.49350767662774
O          -0.16450673426239    1.32503271101566    1.30939576428990
O          -2.40512485266814    1.15659499898217    2.26276072864083
H          -2.17967046514355    1.22383674174628    3.18466168313230
H           1.41153585123508    0.79667224043703    0.99699439941994
O           0.13273973892175    1.61424202281950   -2.73511014390272
H           0.59539369871589    2.44936422838245   -2.82028169247209
O           2.18154380839394    0.26383616708132    0.70302385986655
H           2.06045354346894   -0.59937108169387    1.16654887596737
O          -0.39998948336946   -2.21266271884397   -0.69288876676491
H          -0.92487487909188   -1.51952599089493   -0.20770993296531
H          -1.04714331573127   -2.77962168734729   -1.11524675865159
O           1.22979416015731   -2.01217087522761    1.66240166009480
H           0.54127865888731   -1.57398034737697    2.20139131242874
H           0.75855354453549   -2.40346566948195    0.91681710584349
O          -1.57989380562252    2.01963171987750   -0.79481235590110
H          -0.98714984208299    2.02712078245252   -0.01783054494598
H          -0.58817454295533    1.77818990822892   -2.06563964571486
H          -2.08977531628362    1.21175232480811   -0.65041472318347
N           1.42687655803949   -0.45022433616750   -1.66058490464188
H           1.82134615183842   -0.10610694743038   -0.69989128794901
H           0.73028518170860   -1.19110630197063   -1.43883394237052
H           0.94064841687271    0.35649518814286   -2.13655162913073
H           2.16899280757243   -0.82038786789211   -2.24385740445274
