    26
        -50.46862853  Gyration_radius:  2.47527827435 Dipole_moment: 4.024
 S           1.75056208196252   -1.37634239318909    0.29862642597960
O           1.78250589766509    0.07173507188295    0.56606248592673
O           1.09910103833824   -1.65702552087734   -0.95142174060906
O           1.24852092769124   -2.11689261636268    1.43740960190218
O           3.27111352373693   -1.80946281713648    0.14813169768170
H           3.49792818249313   -1.99861462954091    1.05247504942920
H          -0.33262736298195   -1.82774333142575    1.37261009441989
O          -1.33497879940517    2.36265107080814    0.28577211349319
H          -1.69256280217666    3.16987644355405    0.65579172866469
O          -1.28376622567719   -1.55724462971464    1.37690827401632
H          -1.78026817600495   -2.33707745187855    1.63107710623274
O          -0.47836809490191   -0.36515433701218   -2.66636374334404
H          -1.30620623086896   -0.36744448758947   -2.13127878106942
H           0.07892596718490   -1.05090426157099   -2.25291985248713
O          -2.31586423483565   -0.11019230596374   -0.75286737440075
H          -2.19000408198427    0.79462698709461   -0.43667559592016
H          -1.98602649540333   -0.68632680886227   -0.04212082273712
O          -0.24576132724602    0.88537672338021    2.12344750852220
H           0.59496379086993    0.62335670820402    1.69824170329964
H          -0.94860730416037    1.84443306955407    1.05312113823222
H          -0.77435031680231    0.07265801225446    2.13077069216317
N           0.68238327872552    1.51596447938031   -1.33093637536050
H           1.20908561661601    0.94690811335788   -0.60813641240270
H          -0.06968082429800    2.02922612979525   -0.83270459490337
H           1.30646661349421    2.14837812487332   -1.81804564133324
H           0.21751532796926    0.79523465698484   -2.00697470539660
