    26
        -50.46551653  Gyration_radius:  2.57216329187 Dipole_moment: 5.391
 S          -0.35078528789020   -2.28618183760210   -0.09500503906057
O           0.36987794668513   -1.91606041253796    1.10151699474702
O           0.15225213423268   -1.59541330738163   -1.28405924177631
O          -1.79120464858278   -2.14124473004170    0.02107330193966
O          -0.07291719138050   -3.82560570703199   -0.33033409672005
H          -0.70238873766261   -4.04978067659090   -1.00792157638624
H          -2.31663171577760   -0.70084054172094    0.47116146616256
O           1.42372305905080    1.62517372525539    0.69535033326323
H           2.01889291623164    0.86476514402513    0.49829863250430
O          -2.56080676681986    0.24201222629742    0.67002288386597
H          -3.50976090057249    0.24864662194999    0.80274632388672
O           0.92631837748063    3.20101164679320   -1.65717663698943
H           1.47576968933685    3.91058895242141   -1.99098696986868
H           1.30198002923994    2.93979181841785   -0.80468628890408
O           2.48316998454853   -0.72268484477674    0.00475728620488
H           2.19840054807487   -0.93709793189800   -0.88933183581117
H           1.87452491133126   -1.23725711984347    0.56833562729638
O          -0.27390811730378    0.41396297258551    2.35077469727441
H           0.93277273199417    1.35429572695569    1.50365688246821
H          -1.17160486127201    0.51312619396123    2.00727678246950
H          -0.00723217517911   -0.48845668982212    2.10222498054023
N          -0.50074195230215    0.92314675927192   -0.96900399742966
H          -0.48533877323836    1.56457252289097   -1.76042516103355
H          -1.41177481486697    0.91246503567772   -0.48262812693150
H          -0.25871078716515   -0.06867430257167   -1.23922716223697
H           0.25612439182128    1.25573875532149   -0.28641005947791
