    26
        -50.47398735  Gyration_radius:  2.43818084571 Dipole_moment: 2.213
 S           0.86953650220023    1.71146742561715    0.09795221552427
O           1.06882731218293    0.87823431021390   -1.07172441540202
O           0.81212260556605    0.89905065513451    1.31214918561213
O          -0.23778423324770    2.63303744170323   -0.00493364912234
O           2.16741436456595    2.60744961374070    0.22695552927412
H           1.80421693199889    3.36664920497019    0.66826261009869
H          -1.67893458687031    1.93460697563506   -0.35406373670531
O          -2.51360612853534    1.42963182981359   -0.49803835684958
H          -3.19700372725247    2.08041437975340   -0.66465783223616
O           2.34224918591188   -1.39500731399525   -1.56490187848306
H           2.04304247603152   -0.46450846955122   -1.50204711911869
O          -1.74162497379144   -0.00291615939065    1.75795256224114
H          -0.85732073756239    0.39998124514916    1.75687525103236
H          -2.23798571283065    0.47081202149133    1.07237516101458
O          -1.13042731588590   -2.26173114221808    0.49174194737085
H          -1.20239982136818   -1.85693655035519   -0.40294442862687
H          -1.51823933578073   -1.57874416832028    1.08801407904073
O          -1.08092782830385   -0.66137982796851   -1.64884871342712
H          -1.81184174737824   -0.06049599093736   -1.44408010668702
H          -0.28325495938405   -0.11338777389939   -1.53925984627986
H           1.78947473310388   -1.79514588717633   -2.24068906675263
N           1.34411141757044   -1.66236750395272    0.90903899136648
H           1.23096064467109   -0.64270138216254    1.14207647129489
H           0.33010537209547   -2.04570569920067    0.77733250147345
H           1.84632241200447   -1.72057581979269   -0.00887749851042
H           1.84296718031731   -2.14973140431739    1.64434013283806
