    26
        -50.45300981  Gyration_radius:  2.43483615286 Dipole_moment: 5.196
 S          -0.61958341413417    1.61704826436437    1.17861719789209
O          -0.40345241827296    2.06365992570993   -0.18946920167116
O           0.56944655828859    0.70708487821376    1.56209717032749
O          -0.78224216603759    2.63895316569946    2.14277967265459
O          -1.83860449747296    0.68064673267183    1.17954702872830
O          -0.57130108077695   -1.22957409907870   -1.88759567795502
H          -0.55237229088028   -1.58988789176898   -2.77492565014397
O           1.88433059306363    2.11854659627339   -1.57481136737912
H           2.44116094965479    2.82050761974131   -1.23503316350947
H           1.00044520510980    2.25428693549015   -1.18111488397588
O          -2.18636259898879    0.82439715079176   -1.69052137809843
H          -1.19785451016895   -0.45615691106256   -1.90915159272240
H          -2.88227719401897    0.65407492203855   -1.05025365854660
H          -1.55679173944812    1.42064185988888   -1.23303925009276
O           1.59683004649336   -0.31666569823061   -0.52293760229847
H           0.87210436657633   -0.68850789108793   -1.06482421814537
H           1.88519992623261    0.49324370587206   -0.99722694637445
H           0.98061816321826    0.28021910957631    0.72520259661809
O          -1.23299926897423   -1.70805865935954    0.73140286427794
H          -0.38163622081674   -1.93244171515665    1.19967916365868
H          -1.59134096462612   -0.32001365718606    1.02277754561059
H          -1.03734880052588   -1.74969296286862   -0.21932748017176
N           1.14984204783981   -2.16920887246643    1.85366859779285
H           1.80258472527806   -1.96829212987537    1.10482251403234
H           1.42946750951450   -3.03058161438404    2.30465131328942
H           1.22213705387147   -1.41422875380530    2.52498641619999
