    26
        -50.47304697  Gyration_radius:  2.4860579836 Dipole_moment: 2.159
 S           0.22595370178736   -1.98572038473430   -0.71463033414189
O           1.30338112265764   -1.24372044783900   -1.35926726126984
O          -0.98971492945138   -1.20238568520474   -0.60337076699195
O           0.64747680491530   -2.58935878946712    0.53293815182892
O          -0.12761535902903   -3.18542005496093   -1.68940176820273
H           0.60578588607303   -3.77704035056223   -1.55834407893756
H           0.81869676242293   -1.54432846437401    1.73994664850618
O           0.93255529167023   -0.81787492387705    2.40573725869919
H           1.36501767519728   -1.21518476319798    3.16328669188988
O          -1.89451027363775    2.38390844308193    0.88598249111343
H          -2.77239627665459    2.41155442884411    0.50258645333967
O           1.98460442366738    0.65646043053619    0.36512053045288
H           1.69618985921638    0.27652027626488    1.21435906891645
H           1.89139711879557   -0.07166300274634   -0.28552497839150
O          -0.37568056162898    0.41370390745897   -2.56748635959975
H           0.45696643506115   -0.08743784878558   -2.51738782680733
H          -0.95103014391358   -0.12783949650120   -1.99337898872452
O          -1.64806353219371   -0.06868414280958    1.73915340835437
H          -0.81932265492624   -0.22894341368365    2.21543492470543
H          -1.82009315011493    1.48405744840968    1.31247377285056
H          -1.54460144361566   -0.55241560350555    0.89709389906951
N           0.20269332367709    2.24139348581246   -0.74164748267936
H          -0.07351322747694    1.62412553919184   -1.56195363597377
H           0.95689444370425    1.69875165884285   -0.21609530238987
H           0.56086609493186    3.13544924448082   -1.05795813601483
H          -0.63193740112580    2.37209248933026   -0.10766637960354
