    26
        -50.46551659  Gyration_radius:  2.57212843404 Dipole_moment: 5.392
 S          -1.42807702275058    0.88586175530628   -1.59186995758000
O          -1.33877546029267   -0.56863019339567   -1.44915150241511
O          -0.12770057751724    1.51341095140625   -1.64838327783376
O          -2.30902819589596    1.45453993489587   -0.58696363072365
O          -2.11631694428044    1.14893450936133   -2.99171535582315
H          -3.01570525979206    0.87966483167744   -2.83585471716501
H          -1.73614723216307    1.50008789924870    0.90401812364751
O           2.16195225435849   -0.51638789015248    0.46306450211723
H           2.10309193644769   -0.62181811330290   -0.51497358395540
O          -1.33943678589330    1.41226104405159    1.81125805811657
H          -1.93546283263859    1.86800751379202    2.40727647749490
O           1.39005147914956   -0.63068175304905   -2.08736594953599
H           0.62780022217551   -1.21478258403561   -2.15247172124885
H           0.99416808305108    0.26153762710248   -2.07585719635207
O           1.39297016927812   -2.93173048660725    1.82007055990387
H           1.96014276126677   -3.67875644837853    2.01294550278933
H           1.96267145570831   -2.24115727482942    1.45313930907259
O           1.21006527478158    1.96090593199526    0.67818382051229
H           0.45295673032356    1.95536589484665    1.27855319662071
H           2.09398047415474    0.45343718885260    0.61353986729084
H           0.82357837454364    1.98262263155894   -0.21482403933175
N          -0.38798418347487   -0.98748335715124    0.95686695521373
H          -0.84730596132320   -0.94201070648260    0.00694338740693
H          -0.46227887324475   -1.90699392403882    1.38935429620345
H           0.65688954345694   -0.79869946668506    0.80943192293524
H          -0.78609943944109   -0.23750550598278    1.54478495263715
