    26
        -50.45719762  Gyration_radius:  2.49356962347 Dipole_moment: 3.857
 S           0.76678784599881    1.68041373012322   -1.16711039433211
O           1.69850884076550    2.02773736640820   -0.09588874354170
O          -0.41579576004299    1.04420498895570   -0.64046757862341
O           1.40305941455530    0.95082443208668   -2.24633661131504
O           0.28522824712858    3.06032482216893   -1.80193854986179
H           1.04977166250751    3.34994566284616   -2.29057091714276
H           1.29120710229906   -0.52582499762538   -1.66915107308462
O          -1.67343823944429   -0.12309422896945    1.97767440465484
H          -2.02285182298048   -0.69931844265456    2.65895912354656
O           1.21648737742937   -1.45086908563452   -1.32002141623042
H           1.38460643878247   -2.02533906470030   -2.06968017912526
O           1.47157943028121   -1.88645472482892    1.32321448895988
H           0.61632016141086   -2.32535313773649    1.37529055434453
H           1.62294776372493   -1.76752447303960    0.36573652395641
O          -2.68516410010848   -0.00829149124500   -1.53986969457116
H          -1.84863700728512    0.46104282965582   -1.33899056114527
H          -3.36578956006872    0.48004581686736   -1.07376610807113
O          -1.27889533364496   -1.78693154702652   -0.05773609158488
H          -1.94080449552292   -1.37471517005669   -0.64625049855009
H          -0.43762820398986   -1.60848695373522   -0.51195410770327
H          -1.55995608916577   -0.68705837715238    1.16923598771232
N           0.88959535851808    0.65485652597102    1.94200609758045
H           1.20332559436612    1.26531879509884    1.11851662511488
H          -0.15612874644262    0.57399032815608    1.94137808736157
H           1.25458856639391   -0.32020637176245    1.78195625601927
H           1.23107554453080    1.04076275782832    2.81576435563216
