    26
        -50.47304694  Gyration_radius:  2.48598616469 Dipole_moment: 2.158
 S           1.93740052910164    0.79411304022598    0.34760477928955
O           1.16636177146264    0.81087318946769   -0.88079674763036
O           1.97230214430795   -0.52944741875921    0.95903242503682
O           1.55300358645652    1.82311701432090    1.29199318872168
O           3.42872677776470    1.12157246328942   -0.08034412324191
H           3.84113426613045    1.31779815630040    0.75422202867235
H          -0.00782782488096    1.81590093308741    1.66797849283345
O          -0.97402846415511    1.70418538304730    1.86298433928075
H          -1.16591396221107    2.28262511116364    2.60280198536714
O          -2.52535106954152   -0.30386251111779   -1.89280325165109
H          -2.37756090610979   -0.22344187534937   -2.83627392853039
O          -0.50000564310790   -0.98229191454614    1.81420248588315
H           0.45912808128718   -0.86773320933564    1.64358416199754
H          -0.84769573184016   -0.07924866056252    1.92533449869441
O           1.43578950199332   -1.75273496472532   -1.33039657307357
H           1.36215690289835   -0.80331806302610   -1.54739626498729
H           1.85200786776903   -1.70807335994319   -0.45191530535609
O          -1.33521127286475    1.78481526061377   -0.88063128905549
H          -2.16869661173847    0.54029905929176   -1.49603962071831
H          -1.45725457941124    1.87016917884018    0.07708135910418
H          -0.39640248488254    1.53784275426924   -0.98733351679443
N          -1.06661692268779   -2.05154446316340   -0.51980471854044
H          -1.69080734119717   -1.41440098683565   -1.08555877948811
H          -0.08974799597925   -2.04782765748369   -0.93926476871422
H          -0.95785991193754   -1.64897671697541    0.46286396883941
H          -1.44703073662511   -2.99040971208843   -0.48112484593881
