    26
        -50.45059454  Gyration_radius:  2.46317964728 Dipole_moment: 4.138
 S           0.43190616138662    1.56599471121080    1.16818180522360
O           1.18503014852222    1.00904499742877    0.06074616272060
O          -0.90338022454273    2.09732084026087    0.62079835548674
O          -0.00527537448339    0.38985868702301    2.08457104354345
O           1.10265143531143    2.54127408444691    1.94284203252163
O          -1.11260057088517   -1.26709062839334   -1.49841994914172
H          -1.35144476125983   -1.95695959074939   -2.11807343977702
O           1.26288888451064    2.18100298246916   -2.34487706990270
H           1.58264096704301    3.07911988274876   -2.24661903252705
H           1.44795715809125    1.72628427461585   -1.50109165257290
O          -2.07763521782739   -0.52816725358455    0.87871858748738
H          -2.58720660269472    0.26501839294658    0.69076966765064
H          -1.79761430270154   -0.89338724951234    0.00988483967568
H          -0.81618615680354   -0.02309607451068    1.65479105600878
O           1.27694867062505   -1.60642436014120   -0.64036166433260
H           1.45846596996343   -0.67137555296441   -0.44488811571563
H           1.21621918545007   -2.04194547690934    0.24169122720672
H          -0.15375317057560   -1.44536707316889   -1.22266132065268
O          -1.23151794252495    1.42852280571131   -1.76937622257499
H          -1.04763692327744    1.83665548821144   -0.38186193419669
H          -0.39960855846625    1.74135733188580   -2.18847120767099
H          -1.19471580315411    0.45100417036368   -1.79944782965496
N           0.97214816030724   -2.45853400819478    1.93145712297579
H           1.76260921695219   -2.87721663979903    2.40497431012368
H           0.15141756063560   -3.01080148241503    2.14612344111112
H           0.82769208040083   -1.53209323897568    2.32059975698415
