    26
        -50.46787079  Gyration_radius:  2.51254608525 Dipole_moment: 5.324
 S          -1.70764720962240   -0.22154606841734    1.03577443485221
O          -0.91060508496679    0.98770096046419    1.26052469898006
O          -0.88972042902720   -1.38755135447677    0.80268261873258
O          -2.71554765720610    0.00648242923412    0.01674220749960
O          -2.49161363088093   -0.48690756202172    2.38500079908286
H          -3.20761711495894    0.14001326462095    2.35962344542934
H          -2.12854373228236    0.19697661081710   -1.46128545617217
O           2.23807214812019    0.11069152087956   -1.29594494181720
H           2.63725089526375   -0.06348472478183   -0.41221522596663
O          -1.68235658402139    0.37015836855591   -2.33127416809747
H          -2.38273768168439    0.42339440322599   -2.98339135574079
O           0.85035327781607   -0.54476322257036    2.63001078912060
H           0.39222535023887    0.29485957262699    2.49190058820586
H           0.32286942158323   -1.16528176192687    2.09976348628585
O           3.08619547530081   -0.39450443157389    1.17815161093583
H           3.55450996846712   -1.21638022696338    1.32984456958240
H           2.29844201186619   -0.41668064236417    1.77198672591164
O           0.24723551479398   -1.61314270537382   -1.63826535072441
H          -0.12890005290915   -1.69824144785806   -0.74353800574915
H          -0.40349333672582   -1.10223517820069   -2.13706897040478
H           1.66626239688544   -0.66828638105742   -1.49580110179419
N           0.27048213685077    1.72017184560912   -0.97673561073949
H           0.47246651615267    2.71005431127436   -1.06034062490886
H          -0.41604321393927    1.41322465873191   -1.68587594132625
H           1.18152843269428    1.10400687276584   -1.10495878726310
H          -0.15306780778035    1.50127090872996   -0.03531045394634
