    26
        -50.46787092  Gyration_radius:  2.5126771016 Dipole_moment: 5.327
 S           0.44375811683145   -1.95967510817483   -0.03316086292901
O           1.52861333115560   -1.00567924328449    0.21385475159640
O          -0.52812932718810   -1.46033950835439   -0.97601124780717
O          -0.12981741538408   -2.42377071832113    1.21664238406018
O           1.11611936543911   -3.22268026212476   -0.71015151744248
H           1.52386739218044   -3.68124775032059    0.01769753813710
H          -0.95616820043562   -1.31069407317028    2.01881594390989
O          -0.66984318838986    2.49776945483300   -0.10760449896559
H          -0.18047094259370    2.48436142293451   -0.96260875824981
O          -1.39203785439020   -0.54901202939059    2.48339690972498
H          -1.83163694716754   -0.92113550533562    3.24947788945744
O           1.41841527584985   -0.34792352195250   -2.40862505759237
H           0.57534966230703   -0.79209319804666   -2.21836831307718
H           1.91675767248983   -0.47996057203288   -1.59119472596280
O           0.67046508058789    2.21517462884986   -2.39220781438817
H           0.18940175667800    2.35329420671219   -3.20916688126768
H           1.01253641248282    1.29043782674609   -2.43149567524116
O          -2.27792415496887    0.38468618867628   -0.06221465488251
H          -2.27439275767273    0.12422805211034    0.86805877528925
H          -1.40925640212346    1.85184445362215   -0.20593563482881
H          -1.75763116323772   -0.30056494289157   -0.51940345770699
N           0.62191956909645    1.05971916735268    1.57385796937640
H          -0.12004805774945    0.62427299440560    2.14681898913829
H           0.13202423814667    1.75311233340146    0.86308151304110
H           1.30503981237498    1.53606287692036    2.15189088123961
H           1.07308872574751    0.27981283684535    1.02455552537222
