    26
        -50.46787062  Gyration_radius:  2.51277064599 Dipole_moment: 5.325
 S          -1.94402070346888   -0.45629124004346   -0.22570185060191
O          -1.06007751353617   -1.46720085306322    0.30292951136544
O          -1.30049884571158    0.37344034699441   -1.24829859759185
O          -2.57163981127823    0.36981485559523    0.78922813804758
O          -3.11649402600369   -1.22577424930179   -0.95939376615572
H          -3.80449699427303   -0.57223189106620   -1.03549624297920
H          -1.54224431873664    1.16533051747350    1.72358370023762
O          -0.84274480828620    1.67203775903081    2.21338896038441
H          -1.29340995409251    2.12465322209478    2.92797798626460
O           2.53351739609835    0.41307663433754    0.33401402842171
H           2.62872261903182   -0.21697448722647   -0.41729196645286
O          -0.03477941154683   -1.85306533974589   -2.12210200737535
H          -0.44886992796593   -0.99598004503473   -2.28924396161394
H          -0.34125736045172   -2.06651512681790   -1.22507557057272
O           2.54661043139826   -1.33128148861133   -1.67992338465490
H           1.60968425270903   -1.52791565490912   -1.91846769768662
H           2.96417769295314   -2.18025808011468   -1.52892809814780
O           0.81681399469333   -0.64337739268433    2.06355771529519
H           2.08274366921532   -0.08782296632518    1.05476808620210
H           0.34835109890648    0.12800529720892    2.40819022075379
H           0.17244845227961   -1.09591538482748    1.48971494090058
N           0.51934499859652    1.92324624572012   -0.14311034425955
H           0.11128556946841    2.09239098428784    0.79133345318595
H           0.70607625985278    2.79310917463584   -0.62905127753983
H           1.44128172717226    1.32686873001535   -0.00224370036183
H          -0.18052447706996    1.33863043242763   -0.67435827497038
