    26
        -50.47250213  Gyration_radius:  2.48728306211 Dipole_moment: 2.903
 S          -2.22009209457983   -0.46141345766015    0.04445069126129
O          -2.29278804274546    0.57012769030569   -0.98333270739958
O          -1.29335087187589   -0.10929127777952    1.10301379534155
O          -1.98016243307000   -1.77557207708054   -0.51986293642304
O          -3.65315970840840   -0.52280221529910    0.71694082399200
H          -4.17628358736923   -0.86712333996700    0.00123517735000
H          -0.48801094631890   -1.95722441489646   -1.04860744427813
O           0.30505486897713    2.01101334217178    1.58715832896661
H          -0.36409010610190    1.30620555438662    1.66686785447218
O           0.46151687472949   -2.07381635543082   -1.31510964797611
H           0.46489132176180   -2.75902984142669   -1.98505570447867
O           1.81803217764698    0.29302616146997   -1.48198616531790
H           1.37438755021472   -0.57551548398363   -1.51766763724055
H           2.22984039147042    0.33476543783911   -0.60007818719267
O           2.45908785181176    0.33723384010305    1.19652673200910
H           1.88301210432664   -0.46749099164852    1.34841148712042
H           3.24936862205611    0.20759482317937    1.72113567592278
O           0.83807681732307   -1.68969506284349    1.41648033905367
H           1.16046067856526    1.54365309971618    1.59475976259930
H          -0.01125604848889   -1.20483480882120    1.44230777451833
H           0.85782995389265   -2.09454027534732    0.53689977655895
N          -0.12440545318616    2.01720997224821   -1.00547088220040
H           0.66017238999731    1.38174138703847   -1.33595552924004
H          -1.03546983595365    1.47548524026472   -1.05575013356890
H           0.05363451332038    2.21217957899175    0.02601583514906
H          -0.17629700801718    2.86811349446918   -1.55332709900915
