    26
        -50.46764355  Gyration_radius:  2.52702243637 Dipole_moment: 3.891
 S          -0.91198296771331   -1.65486828451992    1.34407744413036
O          -1.99738353359614   -0.79030064200049    0.95863272356846
O           0.29531482102476   -0.89597172822847    1.67540689858769
O          -0.62257622570187   -2.71480113124695    0.39129112026289
O          -1.34544480327370   -2.39906297345100    2.67340640267577
H          -0.78794145973903   -3.16766830937437    2.62368041122294
H          -0.23358486489305   -2.16186076190913   -1.03997976322770
O           2.12726168028785    1.94761722614790   -1.17970623826267
H           2.45317660751152    1.88685793495582   -2.07842167624390
O           0.02799196333941   -1.74502566309558   -1.90648966683427
H          -0.03939112750069   -2.44142920640433   -2.56165102269844
O          -1.73040099009203    0.28338415402029   -1.41180250573575
H          -2.00794531513025   -0.11432501549751   -0.55427013999730
H          -1.11538941083267   -0.37134105397590   -1.78946696404719
O          -0.04437688610309    1.63360730317044    2.14053209576747
H          -0.02910569150225    0.64943584942312    2.03216698464896
H           0.82329691776389    1.86366436089740    2.48028403312389
O           1.98947913627375   -0.53666708554857   -0.37045591781927
H           2.17409909992995    1.02257262266200   -0.81133742455401
H           1.47748893279438   -0.67831404056174    0.45045821318567
H           1.47723819254576   -0.99220208248285   -1.05634632502019
N          -0.40138594406354    2.29846121050542   -0.41002988807971
H          -0.84735184329054    3.19531350448639   -0.56557890329150
H          -0.97114901669061    1.50818310553591   -0.86590481759332
H           0.57543249331092    2.28205204960894   -0.79415267669911
H          -0.33536976459551    2.09268866687384    0.62565760293335
