    26
        -50.46364132  Gyration_radius:  2.49478252711 Dipole_moment: 3.036
 S          -0.31031631598992   -2.09901187692191   -0.26097211874302
O           0.61882540686057   -1.96461162893749   -1.36265640962674
O          -1.15177990579163   -0.91143895507284   -0.12099819141079
O           0.34013411819164   -2.46983276473770    0.98039107028107
O          -1.30865161667527   -3.26986122620050   -0.62423923015976
H          -0.72222138318261   -4.01589884652177   -0.68850356822526
H           1.35518030149342   -1.32245515225309    1.42409958227281
O          -0.65868029433656    2.82464549092163    0.53310989086655
H          -0.18610689605287    3.54058278584514    0.95828239718869
O           1.93050682204860   -0.54568720295485    1.65529396605540
H           2.54403489178528   -0.86281631964677    2.32034124968708
O          -2.72686434918067    1.26974106287832   -1.12141945446262
H          -2.56589007797106    0.40123495607960   -0.73566156168395
H          -2.54384323203819    1.91069189513129   -0.42863649497526
O           2.40255813772760   -0.03953059898270   -1.00205497871499
H           2.45596409832023   -0.08672381679851   -0.03125892619132
H           1.95398419408799   -0.87227770527091   -1.25929431242109
O          -0.54387716681050    0.65530951161923    1.99613591997217
H          -0.92331561297343    0.00526538086074    1.37747905919362
H           0.38466973676680    0.38727715541058    2.08593592731316
H          -0.67412623106629    2.06987454047571    1.18246449533813
N           0.07507788650115    1.09864694869113   -1.39593602362341
H           1.10043726746987    0.81571814038803   -1.33561777161183
H          -0.47067485779817    0.28268254516723   -1.02183260087175
H          -0.14790035622881    1.91312177923498   -0.77752049118280
H          -0.22712460516400    1.28535391160625   -2.34693143426966
