    26
        -50.46111933  Gyration_radius:  2.71269903912 Dipole_moment: 3.929
 S          -2.19637308601618    0.38214202346410    1.04938001546341
O          -2.14482652066517    0.75342634938286   -0.36219166365577
O          -1.03213753389159    0.83011837649780    1.78252514690716
O          -2.45657304377728   -1.04001519895263    1.21414069407223
O          -3.44090657019563    1.14605960993046    1.66226352780369
H          -4.15241124919726    0.83001489911641    1.11478123557178
H          -1.39791567563698   -2.05966665974146    0.61043116886341
O           1.48436991738965    0.91550274512927    0.93394708867828
H           0.61985704082521    1.21886708563693    1.27771446853653
O          -0.67595140943505   -2.61824925473920    0.21087414884269
H          -1.06258645565858   -3.48237406907787    0.06414747599912
O           1.61874043757560    0.43837023518745   -3.16690938110428
H           2.01048948829711    1.13059676589260   -2.59241910271194
H           2.35272699399574   -0.00564147863336   -3.59316480515616
O           2.55588232239080    2.14834808969238   -1.29412935029123
H           2.33160093314119    1.75637001540526   -0.43281269188692
H           2.21143064743095    3.04288826281756   -1.27864549136001
O           0.73531704005935   -1.26864450366650    2.29164725158164
H          -0.01512244517718   -0.66367607537183    2.40285716954777
H           0.41160358730607   -1.97149361756214    1.71423746189383
H           1.67201651771761    0.14309995023065    1.50182530999778
N           0.12057959040459   -0.33883285181058   -1.04486438688370
H           0.75615475015491    0.09411186696019   -0.33208968348134
H          -0.02307374442835   -1.33474376291261   -0.81267124492831
H          -0.81509467533148    0.14614380950420   -0.93424367018615
H           0.53220314271450   -0.19272261238184   -1.98663067211503
