    26
        -50.45677773  Gyration_radius:  2.47552921381 Dipole_moment: 5.425
 S          -0.67747376883788    0.15498915350522   -2.03933500326377
O          -1.96036994713029   -0.12525254538269   -1.40177405315573
O           0.33855919108266   -0.81826463885618   -1.71476152182890
O          -0.26327126815922    1.52540102001277   -1.78589754611330
O          -0.92730591233855    0.03449935660683   -3.59762878327685
H          -1.66997553880542    0.61298845302829   -3.73732623306487
H          -0.28995383491028    1.99384230327901   -0.29115585528728
O          -0.36456349418505    2.25209185012210    0.67276079188881
H          -0.45644997587597    3.20597362913544    0.67848518377844
O           0.53929000746302   -1.26618127841765    2.24426094719684
H           0.69275311875140   -1.38141647409654    3.18228710786129
O          -0.76285677931610   -2.57117957553148    0.08052173196611
H          -0.41903265431638   -2.07508456838115   -0.67803805782682
H          -0.05067076166872   -2.57912042102099    0.72758350466870
O           2.72906033442111    0.04603033398125   -0.95969850492876
H           3.27899654234858   -0.73236204577916   -1.06373231247573
H           1.84814433293887   -0.20059576575596   -1.31243400092205
O           1.89700162113130    0.80892830512111    1.47127273804664
H           1.13605879772269   -0.51612068415413    1.95444389773785
H           2.32183793652845    0.57901409990636    0.61644011069486
H           1.20733979982987    1.45042915924018    1.24202615364539
N          -1.64214847175707   -0.08197368731518    1.16604187101681
H          -1.28870145185831    0.89274472037605    1.21329686211986
H          -1.81100058030866   -0.27300023210760    0.12357714634388
H          -0.89878386797420   -0.73098721176042    1.52617220485932
H          -2.50648333477508   -0.20539328576040    1.68261160032428
