    26
        -50.45677767  Gyration_radius:  2.47546408825 Dipole_moment: 5.422
 S          -0.92586079773553   -1.94479688338669    0.01362026512792
O           0.48060489427923   -1.84372930969024   -0.29708937519316
O          -1.77747978438086   -1.30288290633764   -0.98317517286860
O          -1.25444247562815   -1.47865601905489    1.35092292447828
O          -1.28214181105586   -3.48613802137931   -0.03320294620342
H          -2.22814219576687   -3.48714244884567    0.07124211094211
H          -1.31882424242956    0.07435011261819    1.54901197327555
O           1.41415433757418    1.95939705148898   -1.04255674643330
H           1.72989227460806    2.85408986452166   -1.17123147119641
O          -1.38631856758646    1.07088131718851    1.60914056783196
H          -1.95852956649873    1.24657360738388    2.35756283731380
O           2.14969795039446   -1.07177140914203    1.61366700389747
H           1.48719020008019   -1.41699640781986    0.97876112152354
H           3.00408907921084   -1.33732240871904    1.26918277092429
O           0.70046840488846   -0.32938039200004   -2.57048365583698
H           1.39313635730412    0.26978580983518   -2.27523946577246
H           0.63109145370749   -1.00606826392776   -1.87983107159028
O           1.37907025906326    1.49357905375629    1.51276101700189
H           1.74195360342461    0.59179825877617    1.65101972796922
H           1.48967433910863    1.77543464492267   -0.06122012681606
H           0.43308173153092    1.41403685588126    1.70893767582840
N          -1.18692410976185    1.21460247191902   -1.08593947313688
H          -0.17400004880672    1.41891455583581   -1.27535879451315
H          -1.78287283669213    1.74438900993877   -1.71305674100620
H          -1.37038935090710    0.16459384279034   -1.21030801771982
H          -1.38817909792436    1.41245800344595   -0.08713693782791
