    26
        -50.45677633  Gyration_radius:  2.4753803018 Dipole_moment: 5.426
 S           0.85327962564746   -1.07787106126852   -1.65815849058516
O           2.08734338994631   -0.57154074094038   -1.06569002048691
O          -0.11086437214566   -0.03748579533945   -1.92836001792822
O           0.31300272404686   -2.17322784304342   -0.86884783105963
O           1.25593102899418   -1.68666107674512   -3.06254834128519
H           1.93341993229940   -2.31453587478481   -2.83324523852498
H           0.16506896323053   -1.91365129917876    0.66930137994960
O          -0.65029610392577    2.15963333966098    1.35749041151274
H          -0.88265382219082    2.69191950471885    2.11866703622615
O           0.12956314097815   -1.70923831885695    1.64819876517890
H           0.14855900878644   -2.55910698628850    2.09062016062033
O           0.94715082749069    2.31048859141489   -0.98914585566855
H           0.17898736339448    2.62717874719235   -0.50373510165390
H           0.64101769037243    1.53358915592748   -1.48140618507604
O          -2.62011990831712   -0.40730629272476   -1.15461772236386
H          -1.69380551193765   -0.36896717651190   -1.47352998587040
H          -3.09710267385534    0.25389152238691   -1.65909532791854
O          -2.08208864606283   -0.00586182411261    1.44034557164041
H          -2.40512694671277   -0.17833228675031    0.52930480043513
H          -1.42441832360158   -0.69828950450644    1.60676096186764
H          -1.27214341935741    1.37477612349250    1.36568225032145
N           1.52767748154374    0.56257645703702    1.19197047422911
H           0.80434031425122    1.32217266868689    1.13286733500684
H           2.34660400653590    0.88579868330068    1.69596341471887
H           1.09926520836598   -0.27574727960802    1.62880929947069
H           1.80740902222098    0.25579858684210    0.20239823724570
