    26
        -50.45930852  Gyration_radius:  2.54527658227 Dipole_moment: 6.937
 S          -0.60508364638603   -0.22899906964365    1.64535606128046
O          -1.88945125152161    0.23836484634353    1.20751220361702
O           0.49399797495413    0.62861387507778    1.18904674667515
O          -0.33422731604821   -1.61584539449768    1.21947694920726
O          -0.58296451112469   -0.21667677858228    3.20328759164602
H           0.26211447127560   -0.65884217887638    3.41040654446138
H          -0.30197323245761   -1.87876561528080   -0.34549216068121
O          -0.23249602665602   -1.97080487887488   -1.33520336723992
H          -0.33250645902018   -2.90549493083373   -1.52147349093092
O          -0.60726420549385    1.97317802899268   -2.31413265665381
H          -0.85517675767668    2.19960268168586   -3.21104317004656
O           1.24779149092983    2.96216439204308   -0.22255486724061
H           0.44433506395068    3.07673940796958   -0.73873000948206
H           1.00531750109522    2.39867618448494    0.52274528209475
O           1.46353848620510   -1.90615437209414    3.09117639231474
H           1.31088508627009   -2.71269344633830    3.58849126010461
H           0.92094993397698   -1.97127210285192    2.27747269909569
O          -2.17595671161498    0.09197137404823   -1.42617061239041
H          -1.31194375200963    1.35444563727518   -1.97263470178334
H          -1.67093890725537   -0.72291312174606   -1.55820290370302
H          -2.22753831685821    0.20433042736264   -0.45346603786088
N           1.22070641613683    0.31961794285871   -1.27650927534708
H           0.90821785611100   -0.62634103366932   -1.54530202512635
H           0.98135093676903    0.44709808268479   -0.23312796989507
H           2.21356641294870    0.47396071026182   -1.41680047113130
H           0.65474950365463    1.04603935269232   -1.78412801068499
