    26
        -50.46680522  Gyration_radius:  2.45965504487 Dipole_moment: 4.934
 S          -1.81324626830022    0.55557590338924   -0.38565829177785
O          -0.71071067531268    0.35339533253627   -1.34155332636536
O          -1.47646981956944    1.53766608292364    0.60776890596550
O          -2.26091369493078   -0.71924884945470    0.14428216454675
O          -3.02513072966991    1.11324765995844   -1.23190641400696
H          -3.47885195636268    0.30810760065430   -1.45620375650507
H          -1.30110198071005   -1.55956510568046    1.13876471330381
O           2.37342565501410    0.81119426850032    1.02684391322237
H           1.73564366023669    0.82561399564109    1.77604038606157
O          -0.62688097817927   -2.02217114108497    1.69780795822333
H          -1.09308013301950   -2.72466543727129    2.15287304976740
O           1.00208335220514   -1.21004791538597   -2.94008393919608
H           1.37198493850518   -0.76297416256337   -3.70241122690152
H           0.28751240935169   -0.64382059524956   -2.61499759260819
O           0.17873243509870    0.57051113909771    2.52457028598060
H          -0.07152714013542   -0.36298200939402    2.51450444339566
H          -0.46801877401501    1.02032480907138    1.95142141625687
O           0.89488316463836    2.40272947701191   -0.57003537056641
H           2.05937856759007    1.52276511077044    0.42741919786006
H           0.34520373757326    1.72903369975772   -1.00479128217020
H           0.29523430187640    2.82023148024551    0.05629994396597
N           1.17368527988374   -1.14357569616239   -0.15240113478398
H           1.82450153895272   -0.41175296563738    0.32687012112257
H           1.63304195744137   -1.65708585868923   -0.90411551442089
H           0.74873988279130   -1.76128362659011    0.55289014285484
H           0.40188127906262   -0.59122320648591   -0.59419879321571
