    26
        -50.46835719  Gyration_radius:  2.49017544549 Dipole_moment: 3.646
 S          -0.48260826239822   -1.22209997500861   -0.83473392742929
O          -0.60556915326941   -1.43049849031695    0.59408577676426
O           0.85381403025460   -1.53817873651427   -1.31988166677105
O          -0.85210262352429    0.14821932770772   -1.21235574546175
O          -1.49912774386222   -2.18243987990651   -1.52078040534392
H          -1.54809076522435   -1.85298446678094   -2.44095358388626
H           0.09970239426216    1.33111568765375   -0.66856788101894
O           1.32781215765138   -0.66364133199465    2.32632667495057
H           0.61127840893768   -1.15183556195896    1.87985352781368
O           0.75450313871208    2.01232182885841   -0.36514293605482
H           0.55512219923870    2.80884402605794   -0.85938358735864
O          -1.58698304350537   -0.57681535729303   -3.61763998095907
H          -1.27083080996734   -0.06889792923553   -2.84214887204690
H          -2.47129497537774   -0.25766652535583   -3.81190446317698
O          -2.19672383840880    0.32926291841448    1.80614398038330
H          -2.61582774821862   -0.18108358572394    2.50134772299374
H          -1.68741740824947   -0.31323520682915    1.27065242416542
O           0.09712688083502    1.67239805036623    2.35924312306121
H           0.92470539590553    0.21755467647254    2.54207290236849
H           0.34127993038951    1.98163551187551    1.47481278218797
H          -0.81559435234835    1.33457383011512    2.26271257524964
N           2.45425728354478   -0.06902231850448    0.08754406852059
H           3.45572618102732   -0.15334397174750   -0.04401719541492
H           2.11385617435572    0.88422783123581   -0.11256887578688
H           1.90979661834331   -0.72838781410819   -0.55302849996417
H           2.13318994090658   -0.33002254748161    1.09831206219855
