    26
        -50.46680549  Gyration_radius:  2.45959446251 Dipole_moment: 4.926
 S          -1.69369602625488   -0.93702881342463    0.02326581067926
O          -1.21726832474243    0.08679515201487    0.96932457958540
O          -0.80560465559629   -2.06567055709888   -0.02378244958811
O          -1.98480913201817   -0.33585429239538   -1.26524222068400
O          -3.08426197653556   -1.43366992947670    0.58480369511856
H          -3.68446762769901   -0.85123189819533    0.13210265156416
H          -0.77760283079384    0.22482283674917   -2.18426949499920
O           2.65315052396132   -0.24904811176056    0.48646158924858
H           2.45840753025583   -0.85185417170129   -0.26656950967600
O           0.01949764590788    0.58141057843335   -2.65168777074334
H          -0.25323598053777    0.75103012834821   -3.55438002053235
O           1.43183116443900   -1.58086136150995   -1.47599332687780
H           1.09484644529122   -0.92279173617528   -2.09858231652416
H           0.65050104527435   -1.91071152816141   -0.99666346093788
O          -0.67928733676799    2.72564161759271    1.79467351854529
H          -0.66169825475025    2.86122550013243    2.74300322414919
H          -1.07762408774842    1.85496069782588    1.65347574573006
O           0.79860562140782   -1.31647191734529    2.12668465954817
H           0.62835604064053   -2.16951343898122    1.71499360499805
H           2.18048856383245   -0.65125778540773    1.24745475201898
H           0.03008666666404   -0.77799983467802    1.87269276069491
N           0.80685071492898    1.42363327648020   -0.18010144180369
H           1.69146793648831    0.85437253790553    0.10688380985518
H          -0.00831533064714    0.90327274344339    0.22076171539057
H           0.78403078938230    2.35940975506877    0.22446900673216
H           0.69975089563449    1.42739054234330   -1.20377911148980
