    26
        -50.47250302  Gyration_radius:  2.48719285052 Dipole_moment: 2.876
 S          -2.18407592447271   -0.30063147480538    0.53164360752824
O          -2.41077158487964    0.64664388487140   -0.55301347389114
O          -1.04236743268243    0.07025071186664    1.34571158742115
O          -2.13510444718821   -1.67031583139328    0.05690255230679
O          -3.44969983802769   -0.20869194464416    1.48008501032959
H          -4.11631344495483   -0.61211897533058    0.93483988406645
H          -0.79633025526898   -1.99363899507666   -0.74494263920927
O           0.72912150668367    2.10674906357524    1.30104580258625
H           0.05502786541946    1.45888089166013    1.57797757691837
O           0.07007443258746   -2.19527442722880   -1.18638411798335
H          -0.10087137729857   -2.92782524998968   -1.78008608894436
O           1.48715128496338    0.04940062420902   -1.83723959994175
H           1.00006499746715   -0.78563322128759   -1.70335656563227
H           2.07284346696402    0.13198342304648   -1.06312828892810
O           2.66652281136218    0.26045322815058    0.64287696095884
H           2.09275516290418   -0.48760735431036    0.98017667912797
H           3.54009781438297    0.11696930365221    1.00724214263764
O           1.02191070797747   -1.62492553355159    1.36742354855461
H           1.54222372494938    1.58294237984491    1.18013667666808
H           0.22271751900186   -1.08112211477312    1.51845981152430
H           0.83905890524638   -2.09834042402196    0.54261149959279
N          -0.22358148980519    1.93696273040799   -1.14230832198185
H           0.44259961195410    1.22469346725626   -1.56360035868468
H          -1.15176638690734    1.45647391130262   -0.95866996150518
H           0.17262879120175    2.20069051313165   -0.18990974155204
H          -0.34391641158781    2.74303140341990   -1.74449416195756
