    26
        -50.46587732  Gyration_radius:  2.4393732701 Dipole_moment: 1.725
 S           0.43113033814135   -1.45590424081460    0.82761492322022
O          -0.67562300857035   -1.54664781674703    1.75847138390081
O           1.25157510473627   -0.28306291590813    1.00013872164659
O           0.00120327612584   -1.62947405935681   -0.55805411626249
O           1.38441891468332   -2.69552989338300    1.14084460229867
H           0.78193567078353   -3.40851324361534    1.32857345713317
H           0.76618040119177   -0.50355741700266   -1.56341689782414
O          -2.41482982923950    1.74344144069421   -1.10577006289783
H          -2.62873441555811    1.67369463944464   -2.03754503000126
O           1.26812567016097    0.26576842395356   -1.90611403309788
H           2.18715943438012    0.08747072761368   -1.62800848166130
O           3.41931093182718   -0.58546572844391   -0.48506908149465
H           2.73447911235098   -0.44056926246381    0.19978119786454
H           3.63293009395658   -1.51895724944959   -0.44339127386492
O          -0.97877438974803    1.09905523505166    1.98115074922968
H          -1.91561871284820    1.18664171160146    1.78655337691730
H          -0.79584969834289    0.14384936185228    2.06017654848483
O          -2.45934168707267   -0.75743320613078   -0.20392090005292
H          -1.61870983870134   -1.12784651789155   -0.54124263698876
H          -2.45377419368871   -1.02770025456161    0.72068224194159
H          -2.52002205827258    0.83166272355775   -0.74131608978668
N           0.13302498450658    2.01387928898925   -0.31794591947592
H           0.58514392181827    2.91948300863962   -0.25794927905020
H           0.68690247786189    1.34087831274801   -0.95210441158716
H           0.04133650346300    1.58922620595851    0.63336230399414
H          -0.84357899395025    2.08561071566922   -0.69550129258477
