    26
        -50.46147044  Gyration_radius:  2.59185740308 Dipole_moment: 4.209
 S          -0.68314997302514   -0.04533287097497   -0.29542129159410
O           0.67402331838602   -0.55450337124902   -0.43436250013464
O          -0.66497416435565    0.92236664633629    0.94443383135405
O          -1.15541310787498    0.68293578787255   -1.44810794949817
O          -1.58650215002420   -1.13098282900512    0.12397803331644
O           1.49861746657954    3.47637938423525   -1.25669971510120
H           1.68072040664556    4.14448149508259   -1.91923654851622
O          -0.48064279597278   -3.58342470787979   -0.11009243103410
H          -0.97910268372301   -2.74191487322808   -0.10986405695028
H          -0.28998027911769   -3.77644670174216   -1.02920385823120
O           1.28988078821909    1.10868021335971   -2.46192204307308
H           1.54361164807924    2.60687168800655   -1.72300932253607
H           1.54185506100057    0.44140436342552   -1.80704489349997
H           0.32038848877006    1.04599026938941   -2.45067645913098
O          -0.97303767676287    3.10982441411183   -0.30433473767277
H          -1.29612559006038    2.54391144482545   -1.02211966961635
H          -0.77326048012738    1.85900693681822    0.57424656094947
H          -0.06187182154569    3.37907651220285   -0.56730914186880
O           1.38120884510516   -2.32734854243549    1.36647416867297
H           1.35695039229223   -1.61821375964087    0.68136980124728
H           0.27553368277968   -1.77744332056659    2.20617630031451
H           0.91842978298189   -3.06734871626880    0.92273029739566
N          -0.66645287148857   -1.29770908705386    2.51480673879903
H          -1.21716807065420   -1.26738519481113    1.58932167499104
H          -0.49827150408077   -0.32620295465150    2.77164972117065
H          -1.15526672201800   -1.80667224615894    3.24421751024559
