    26
        -50.46146998  Gyration_radius:  2.59020903584 Dipole_moment: 4.232
 S           0.40730222481100    0.24154717324277    0.58358666520514
O          -0.43582072974214   -1.02324603356224    0.98807756403785
O          -0.12644360124344    1.30612150147293    1.45057489871529
O           1.80483424591194   -0.03805430868325    0.80862447378824
O           0.07872284627267    0.52246341792014   -0.80721499986836
O           1.93654109335357   -3.16212356453199   -1.45531392990402
H           2.71910140837464   -3.63623405320085   -1.74037520048395
O          -0.93113971363259    3.48579567650912    0.07420917618379
H          -0.55516192774880    2.78204668348937    0.63991768617688
H          -0.18647647159324    3.88763789393103   -0.37564134904032
O          -2.30455269391536    1.55134380112012   -1.18823332162268
H          -2.02937326968902    2.45739451381620   -0.93899841043085
H          -1.44123025055879    1.08175746568009   -1.27337902303683
H          -2.66149110611697    0.99590807092717    0.15015828307575
O           2.35270992357709   -0.54858559913039   -1.76751319631270
H           2.08618593939551   -2.21524231253307   -1.69329322410530
H           1.47772010123060   -0.15236180866210   -1.89270546623074
H           2.53874299580646   -0.33514627379426   -0.83831815154423
O           1.47502877839949   -2.68687084868492    1.13527271175309
H           2.02938757911441   -1.89528789333925    1.21224815136628
H           0.22421931731798   -1.78696644862530    1.07028244578418
H           1.60371106338522   -3.01314559680152    0.21392736375774
N          -2.58819562773827    0.62647969928170    1.18536735189328
H          -2.55656271045820   -0.39185704820882    1.19354728722539
H          -3.31438367012496    0.99115987408762    1.79342807936568
H          -1.60337576437436    0.95546603826644    1.47176413426688
