    26
        -50.47298395  Gyration_radius:  2.48787461015 Dipole_moment: 1.940
 S          -1.76557948389482    1.19216008138900    0.26538923980871
O          -1.43658565382827    0.33807938267595   -0.87407309641547
O          -0.65881655764556    2.04561117244095    0.64156556385848
O          -2.33085245454482    0.43193214877754    1.36158966641730
O          -2.91492895267912    2.16468556927613   -0.23169143855768
H          -3.68211639338572    1.60331176494344   -0.19552368480613
H          -1.32912709230469   -0.66656923349712    1.96694159476521
O           0.47087728796884    1.86609861654905   -1.77494100758154
H           0.29678843702076    2.44915392432932   -1.02126045688475
O          -0.64259258467339   -1.31506099184478    2.27090181409827
H          -0.93693333793305   -1.63420689402901    3.12542250367030
O           1.62491053004273   -2.19978455489325   -1.55956565735225
H           0.75765951883731   -2.29755718181879   -1.07488911584692
H           1.41244370613208   -2.31295324565578   -2.48720893965906
O           1.26196423583655    0.54824345438461    1.70565824589161
H           0.58967067785574    1.21294161278699    1.44666462887201
H           0.74578263651299   -0.21820606765412    2.01477693033385
O          -0.69281972225719   -2.18273501989961   -0.36193080082642
H          -0.27875026839497    1.23578001156300   -1.70823496723485
H          -0.62170439818706   -2.13957757929091    0.60339955600794
H          -1.05184503896850   -1.31192945192425   -0.62431466699165
N           2.26211286961140    0.23613558263960   -0.70569401697760
H           2.08686014073135   -0.74112470866405   -1.06554098339226
H           1.95347640613702    0.29341518436971    0.31492599887583
H           3.24040819387686    0.48571275246711   -0.79706185958592
H           1.63969730776097    0.91644367084508   -1.23530505053512
