    26
        -50.47018686  Gyration_radius:  2.51494048254 Dipole_moment: 3.640
 S          -1.24352539073175    0.84762610627233   -0.38674609080324
O          -1.65957819051188   -0.33657944651491    0.34988677500661
O          -0.78832897056791    0.51322264765581   -1.72855933414189
O          -0.22704655230697    1.61390797595199    0.34129642278597
O          -2.51282817310886    1.75040444188447   -0.50845216521849
H          -2.17359705789068    2.62003806991032   -0.79601217854797
H           1.62212234685491    1.10157958098853   -0.42165426379734
O           1.75833423441038    0.53155891551488   -1.18852985204368
H           0.87714509281537    0.56465924175077   -1.62805002108411
O           1.43223560206891   -2.04757206182728    2.17143893877989
H           1.00013224031630   -2.77227686137866    2.62614578493608
O          -0.92345826663624   -2.15744357269877   -1.38456696744905
H          -1.36521788394239   -1.70409572976388   -0.63512361770049
H          -0.91391385632090   -1.45552361754884   -2.05204958312249
O          -0.94722794220630    3.87833369435780   -0.77596034164192
H          -1.06357904990859    4.57152260496491   -0.12246671692830
H          -0.44687977487991    3.16017299129706   -0.33751703316047
O          -0.19839133478895   -0.02417152437218    2.51619065683414
H          -0.90224142255963   -0.27843277787316    1.88613797895254
H           0.88083464713824   -1.24259682896008    2.37165281160378
H           0.11647823934493    0.80584960568025    2.13628360870718
N           1.55362722379242   -2.00834152023993   -0.48813251115086
H           2.23207274580531   -2.64457992823408   -0.89236677882180
H           0.57226017662768   -2.20022837710394   -0.86187121757730
H           1.54639296125006   -2.08458650331557    0.56442040147063
H           1.77417836608652   -1.00244710644985   -0.75539467585229
