    26
        -50.47018692  Gyration_radius:  2.51450586804 Dipole_moment: 3.635
 S           0.70357762552839    1.38001634309921   -0.10091650032142
O           0.49274814901608    1.35577552120168    1.33934094988042
O          -0.55685180523061    1.41050661481060   -0.82783514781103
O           1.55425992964597    0.26533653261119   -0.53021289442342
O           1.44662375391725    2.70454630215016   -0.46752753066368
H           2.36461931148743    2.56906296832482   -0.16289861081601
H           1.31262045377969   -1.27411045925431    0.82112868566665
O          -1.95450576837418   -2.25872797338344   -1.42333763768719
H          -2.74808002926665   -2.07081834374062   -1.92705734589766
O           0.80104845529335   -1.21209475122004    1.63728592147268
H           0.74524038737901   -0.23749480089840    1.77045668600799
O           3.76308258998880    1.53714545104003    0.10134661327013
H           4.40554508495757    1.50182999016900   -0.61074997933174
H           3.09184266490608    0.85126200725759   -0.09190494758319
O          -2.18744827723343    1.09819319485875    1.19924604303988
H          -1.82847340454478    1.31576987030722    0.31254043727170
H          -1.45877521474091    1.37798339486218    1.77295097652737
O          -0.16614269738063   -0.63337769357915   -2.43922400399570
H          -0.47642578851589    0.20686155202976   -2.04605128919465
H           0.71293114950286   -0.72133921374829   -2.04930851882739
H          -1.23365557687799   -1.72457372435900   -1.85608461753501
N          -1.77456098267978   -1.50678708621866    1.12450279408569
H          -0.73772136698941   -1.52457624711709    1.36225207950609
H          -2.06904316023380   -0.48238660578612    1.18328686659723
H          -1.90038212856397   -1.84896051216808    0.13405214798299
H          -2.30207335457440   -2.07904235118957    1.77471884265859
