    26
        -50.47298385  Gyration_radius:  2.4878125756 Dipole_moment: 1.945
 S          -1.51062753149560   -0.44518170270971    1.45900380166037
O          -2.20669399194203   -0.36227623649772    0.19280085863907
O          -0.44250632205962    0.54709488392142    1.56344938281881
O          -1.04393986925303   -1.77467846077435    1.79625077319064
O          -2.57693721443501   -0.06120915683661    2.56776166605322
H          -2.16987617137960   -0.39427426964739    3.36050839472912
H           0.10351697691826   -2.32361156764085    0.81740247355774
O          -1.45022413982143    2.17117224908745   -0.20649910406031
H          -2.16733039947557    1.52999066227943   -0.31994268931156
O           0.80642963519977   -2.57346727031702    0.16338001047514
H           0.93116574990475   -3.51945178257857    0.25425476598948
O          -0.58269079265298   -1.20184191350503   -1.73674143568470
H          -1.30528216464468   -0.98781612643129   -1.10996316241117
H           0.02254683250941   -1.77382232357649   -1.23098753890939
O           2.66950790665888    1.43772119792030   -0.84405526531596
H           2.89067138899510    2.24384561478715   -0.37526472192884
H           2.53531979837651    0.74701156392460   -0.13582231234434
O           2.05621640154640   -0.25977325673283    1.03938973056531
H           1.87328235426801   -1.14978804470509    0.70280148838793
H          -0.97987874635426    1.79899734776184    0.57073216536295
H           1.18862719333466    0.07535397103920    1.34126105213213
N           0.27938453407437    1.26867875503398   -1.99597683073397
H           1.25497359278774    1.37244268664066   -1.60513059908533
H           0.00734359535817    0.23626478528956   -1.98620861458652
H          -0.40736749819590    1.75522288386975   -1.34612785264333
H           0.22436891313843    1.64339549571387   -2.93627644895616
