    26
        -50.47250290  Gyration_radius:  2.48720833557 Dipole_moment: 2.874
 S          -0.95740022342742    2.00586187446193   -0.45096072578790
O          -0.91927702580949    1.21323960333843    0.76312136881243
O          -1.57353314712910    1.28116959532475   -1.55563788922578
O           0.32986293514088    2.56499059606744   -0.81717148740257
O          -1.90099765670051    3.24027690190895   -0.14165334376142
H          -1.74798251836895    3.78353771940394   -0.90707896989222
H           1.46346646507701    1.45319812694388   -0.95352436948063
O           2.17059827053442    0.75622828383357   -0.97252612018743
H           2.85217626630732    1.08830780904498   -1.55869487360279
O          -1.73589348921315   -1.27336981156006    1.42416362740447
H          -1.59860044023570   -0.30817268072926    1.40345962359349
O           0.92129251501513   -1.94782169375877    1.71713422691480
H           1.17450060156947   -0.98258498029865    1.79887516877159
H           1.37532611616370   -2.40760003902865    2.42356456613887
O           1.16550201421505   -1.78494830029204   -1.02048930268994
H           1.58688933759255   -0.90690121994512   -1.08345905412894
H           1.18127199755445   -2.00987707153079   -0.07259723559667
O           1.49511776287853    0.59297501587972    1.72373131769788
H           2.01499762169693    0.71116012176876    0.91526226214419
H           0.61218667101578    0.95002025535306    1.49977486212501
H          -0.87075368538731   -1.64190913720226    1.68028506589402
N          -1.42375080803154   -1.29487592425415   -1.18532371942568
H          -0.39494334004944   -1.54993069342911   -1.25768233390793
H          -1.69771002842946   -1.41470236270165   -0.16355944823293
H          -1.52623396225574   -0.26158472167769   -1.40433455817920
H          -1.99611224972761   -1.85668726691839   -1.80467865799638
