    26
        -50.46392511  Gyration_radius:  2.61067341745 Dipole_moment: 2.912
 S          -1.92873473722125    0.24204719475695   -1.35029250034178
O          -0.70456247019946    0.34885572216032   -2.13444788355333
O          -1.82854504026893    0.91966719624780   -0.07315741354452
O          -2.36791040461912   -1.13659879307017   -1.22800412477650
O          -3.04561366586647    1.01118568702496   -2.16727013052506
H          -3.03097693380333    0.55384659924924   -3.00163101915898
H          -1.39542904322569   -2.03929694507114   -0.34886267793217
O           1.39871214512745    0.80213908548669    1.56616001361250
H           0.63586470750654    0.37134235300869    2.01601159503792
O          -0.71275895678389   -2.53877238855691    0.17569384776686
H          -0.94991491061600   -3.46444021870362    0.10390733431081
O          -0.89454186194329   -0.44448486143122    2.08131409170459
H          -1.38452851110566    0.08322754793570    1.42496401328207
H          -0.85140505092671   -1.33231849206348    1.70284019865583
O           3.73267207597642   -0.23201233055639    0.25348227242444
H           4.61441664916885    0.11624603836535    0.38829701306191
H           3.16555711057905    0.19069745649714    0.91421538746060
O           0.00992744998184    2.76555199181796    0.40533444696252
H           1.03723018806785    1.64771209678015    1.22089154144492
H          -0.68448567941751    2.13093148909372    0.12391029984825
H          -0.44519955465098    3.44455139585785    0.90588347736745
N           1.13646869042899   -0.69975199892193   -0.61320556167881
H           0.50354388983318   -0.22401425391552   -1.31554342639650
H           0.67060139848209   -1.57592783006668   -0.32226084323405
H           2.07651227826268   -0.86698763718496   -0.97018869203239
H           1.24310022720210   -0.07339609480083    0.24195873028932
