    26
        -50.47018696  Gyration_radius:  2.5145550126 Dipole_moment: 3.634
 S          -1.06506506557202   -0.62575082415296   -0.93994375111390
O          -0.00155898252690   -0.01938522767982   -1.72690336721008
O          -1.90663259131578    0.38041203739260   -0.30843137252390
O          -0.53998155346924   -1.57302973638375    0.04873926517157
O          -1.94032622667351   -1.43768436690165   -1.94773663563567
H          -2.49970343549585   -2.01032179238547   -1.38819606738557
H          -0.43147865690401   -0.60053613699309    1.86317099009934
O          -0.76561993465407    0.28949914249766    2.03002990347691
H          -1.39147954890230    0.41718569045817    1.27996459112791
O           3.17898385264841    0.75941514145522    0.51901215107885
H           3.78072501597108    1.11559331166776   -0.13658574836397
O          -0.39239677566133    2.48273138623340   -1.05432915581713
H          -0.09999997515125    1.67754929273136   -1.53240441791445
H          -1.28074394818714    2.22212858850847   -0.76928303741211
O          -2.74319737313707   -3.00129360359034    0.04295871882850
H          -2.55561986574414   -3.93778687177119   -0.05145653503106
H          -1.89966605924874   -2.56941434563384    0.28853199197977
O           2.06399490906824   -1.28043915269776   -0.69275711693743
H           2.81516269589707   -0.07665395970197    0.11815282715111
H           1.44006346910254   -1.77251381560845   -0.14413897860230
H           1.46329937797529   -0.79620079549072   -1.29417878523283
N           0.96752263229030    2.09074415346327    1.17245317157865
H           1.88241518773630    1.61841331596650    0.94066446912198
H           0.47573801907472    2.36953282923831    0.26684955570195
H           0.32811778395935    1.38300058104216    1.64375454199861
H           1.11744704893414    2.89480516837944    1.77206281188873
