    26
        -50.47071262  Gyration_radius:  2.41600405918 Dipole_moment: 4.176
 S          -2.01431904667174    0.05455716209616    0.23321535881742
O          -1.68383479662002   -1.01351935549400   -0.67905154978834
O          -1.66951920900020    1.38038845772636   -0.25325956072802
O          -1.47317741240308   -0.18251105905410    1.57307819636346
O          -3.59018943827962    0.04023907407742    0.38395012426484
H          -3.76051822277113    0.86677616151639    0.82254520701712
H          -0.67767215400001   -1.62120045279274    1.48657750406999
O           2.16612309539567    1.20047572384369    0.51300119641074
H           2.91838832639358    1.66365303031851    0.88292070550604
O          -0.22614989053270   -2.43135067804188    1.15360224528296
H          -0.80113236624209   -2.71412453777471    0.43357435264113
O           0.37049229355378   -0.96937651176730   -2.37384332571048
H           0.46834369189977    0.01053340687522   -2.43583336421749
H          -0.49854879269385   -1.08648487573021   -1.93926305240200
O           0.52227609905912    1.60880965577666   -1.81550959558280
H          -0.33527215731976    1.61778818303619   -1.34871257838099
H           1.19915023057501    1.64466003249168   -1.12659052822913
O           0.00559792452830    1.96862568797287    1.73385198735786
H          -0.53313136656210    2.26315299162102    0.98272290222322
H          -0.44765146752019    1.13837209914699    1.98129091196718
H           1.36808159407426    1.50271973931862    1.03895142066004
N           1.76806921635611   -1.39619485210015   -0.23921502980344
H           1.04914904039443   -1.84608989998748    0.40416168757586
H           2.59463204900829   -1.97684173120659   -0.32447499482227
H           1.26706218709561   -1.27185175484309   -1.20109482697745
H           2.01375057228073   -0.45120567702334    0.11340462648435
