    26
        -50.46798758  Gyration_radius:  2.53184993255 Dipole_moment: 3.750
 S           2.12165918595100   -0.44758259843148   -0.77106238340971
O           1.31019139217570    0.75843893569504   -0.84706480708270
O           1.41383100328369   -1.62238627244858   -1.23873045103179
O           2.71671914928756   -0.63738998446238    0.53882565650509
O           3.31619035511876   -0.21442864911452   -1.78650660029087
H           3.73142144485731   -1.06942667326164   -1.76648620264673
H           1.63150848381885   -0.69183294675477    1.68802422753339
O          -2.44557299680537    1.68809506187595    1.05703475169075
H          -2.79228398697313    1.60333246304251    1.94601467740909
O           0.88653755531530   -0.73858018621063    2.34829332138990
H           1.26467377514449   -1.12299861404377    3.14085954503539
O          -0.57756223861616   -1.99068366400302    0.40905107403221
H           0.15837494200790   -1.98898185112086   -0.24851716969174
H          -0.18653127870139   -1.61367656056585    1.21807002264045
O          -0.65599589551545    0.86941885709755   -2.53159414732249
H          -0.76158191985732    1.81587929745661   -2.64885603716613
H           0.16629964859888    0.76305740997776   -1.99019863841125
O           0.14828671561346    1.73817163908655    1.37203903510628
H           0.61310290015113    1.54088067389838    0.53667185994650
H          -1.46187543582933    1.82075852026575    1.16109657049256
H           0.35894143392015    0.98150417252637    1.94109460629074
N          -2.21580798607955   -0.29292995410305   -0.71096683024854
H          -1.66616176492021    0.13914051807622   -1.50225249148521
H          -1.58154350311632   -1.02441834624839   -0.24074619266610
H          -2.43036590088405    0.46392194230468   -0.01394021400598
H          -3.06245506799887   -0.72728321046357   -1.06015316249646
