    26
        -50.46392515  Gyration_radius:  2.61082854265 Dipole_moment: 2.917
 S          -1.71970003590416    1.62640636143951   -0.02920796099621
O          -1.95438109542542    0.29212589184309   -0.54395165381367
O          -0.44698290083136    2.17906485408309   -0.47574789981362
O          -1.86410159277553    1.71157329192085    1.41314366065801
O          -2.84596120481076    2.54291128324387   -0.66017930046374
H          -2.61567914480461    3.40189930386086   -0.32159734699050
H          -0.85769419297443    0.77271144854983    2.21261011913862
O           0.95224059439505   -1.84934192152346   -0.85393765153097
H           0.24293799711338   -2.12041811838508   -0.22679847557629
O          -0.16634832245556    0.19161493797289    2.63096808849665
H          -0.18385120732355    0.39279960849471    3.56767106672262
O          -1.06943006947671   -1.84704301798416    0.87558665455979
H          -1.56100184476681   -1.17096357137444    0.37490392217433
H          -0.78256857656866   -1.39858531728492    1.68172530065389
O           3.61824056405313   -0.85435801427280   -0.47881686577591
H           2.88394272351650   -1.44748569758198   -0.69310085379117
H           4.37639215515744   -1.17089822779464   -0.97060006151050
O          -0.64468157396032   -0.66644192509664   -2.63757374097760
H           0.47107821209303   -1.53110302166661   -1.64897896854469
H          -1.30265419927007   -1.14850549031676   -3.14100426152330
H          -1.13798766938370   -0.21139045842955   -1.92084661765923
N           1.33670071768695    0.47752277130747    0.37624020091195
H           1.03319322868200    0.35434092163326    1.35710657367857
H           0.72450511854379    1.22737659212373   -0.05180648137729
H           2.33218463708779    0.68572355555087    0.30741131708745
H           1.18160769248084   -0.43953605094571   -0.14321877375403
