    26
        -50.47418058  Gyration_radius:  2.40975173265 Dipole_moment: 3.485
 S           1.20264046069202    1.38249796337145    0.68737173233338
O           1.19286819227123    0.40036341756582    1.75057714607372
O          -0.10467365032910    1.97260020542141    0.43504941361948
O           1.81411462461526    0.89120773672481   -0.53815108547485
O           2.12044139922462    2.56564787285413    1.19981196233550
H           2.00938958721152    3.21852843245202    0.51753755845565
H           0.95994233801885    0.17532841996268   -1.69630753466802
O           0.42355781810621   -0.28183747963868   -2.39463704445188
H           0.94071872506685   -0.23773327278752   -3.19999692878894
O          -1.34541220427387    0.54624121380772    2.34677193101804
H          -1.30364740915225    1.35562679385712    1.81467787503689
O          -0.14097722751067   -2.37444077877032   -0.68140433409890
H           0.00952346149322   -1.80573884051583   -1.45527766255436
H           0.69594549560771   -2.30744764643939   -0.16534130604383
O          -1.78736895625606    0.97114145798395   -1.37934851193525
H          -1.14741053017825    0.56374351217714   -1.98696707683439
H          -1.23524635281617    1.49381575360118   -0.76140027485868
O           2.16152453345897   -1.71896539417102    0.49254316559183
H           1.85498661604251   -1.04074365664302    1.12417973209561
H          -0.39844861399478    0.32284680333378    2.43553933533848
H           2.60969038504000   -1.20939479516126   -0.18896517434557
N          -2.12938889898645   -0.99701337156773    0.33981323862320
H          -1.34569603426090   -1.65420745258430    0.03234714999175
H          -1.87134927412162   -0.50774531928306    1.24398736123340
H          -2.17606876737698   -0.23260713926746   -0.39895827440358
H          -3.00965572757752   -1.49171441628754    0.42654760668271
