    26
        -50.46798762  Gyration_radius:  2.5318608805 Dipole_moment: 3.752
 S           0.12799436691180   -2.26680051828142   -0.37614930092278
O           1.16779918201506   -1.25299584024161   -0.27759240093781
O          -0.91757753637382   -1.89983619627995   -1.30992800450702
O          -0.39234679112993   -2.65926943070512    0.92047212358414
O           0.84258824773357   -3.54269128249339   -0.98758322336109
H           0.09405972921129   -4.11202167554731   -1.12676052449278
H          -0.96943008367955   -1.43102208027813    1.73231886312924
O           0.89517137820941    2.87721131280647    0.93152735139310
H           0.47947824104203    3.34368031633969    1.65765700827375
O          -1.33212971334832   -0.61115284160915    2.16751315075520
H          -1.89631136878510   -0.92115145417849    2.87776499503767
O           1.54490404822792    0.38532492482838   -2.24970059509346
H           2.45364827962493    0.65867692585994   -2.10792575085823
H           1.38416092720200   -0.33906757922408   -1.59390683497382
O          -2.07577158001491    0.22377416850034   -0.32680370519012
H          -1.93229119469377    0.05790355586723    0.62265444985579
H          -1.75760237988592   -0.59621698464935   -0.77442656261443
O           1.20000465585784    0.43659731887178    1.81490209980053
H           1.12217796854547    1.97200205167929    1.28527354728480
H           0.33631648484734    0.17610689252314    2.17116842636150
H           1.35189821423661   -0.19147071285465    1.08326666665517
N          -0.35129652113743    1.96030752508856   -1.23850179736569
H           0.10004633643915    2.43631589300596   -0.41728124533670
H          -0.76192041444282    2.63176007223973   -1.87721377847615
H           0.38662538342906    1.38497714879630   -1.72775278927890
H          -1.10019585980298    1.27905847979152   -0.87299218869130
