    26
        -50.46798670  Gyration_radius:  2.53180459597 Dipole_moment: 3.744
 S           1.95747565289001   -0.90760882549868    0.80166590897409
O           2.46999306785476    0.19081160359256    0.00760467880627
O           0.79496170179293   -1.53863969402161    0.19434382493478
O           1.73230107384043   -0.53863272447297    2.18716055234699
O           3.08582388403770   -2.02092451476182    0.80384758180232
H           3.82754431900277   -1.51777614691639    1.12087488506434
H           0.49683531673086    0.43396376257147    2.35467387065501
O          -3.04043861215896    0.16348774498659   -0.82338924763534
H          -3.67486572309381    0.72077849084015   -0.37110129969171
O          -0.27808809526221    1.06031578763476    2.37320254223855
H          -0.24835966786657    1.48643187809883    3.23130404390562
O           0.43564721066856   -1.34125113560289   -2.36469453171944
H           0.70839651036822   -1.43518050157838   -1.41741106677934
H          -0.12863175577343   -2.09673472704488   -2.54196988016405
O           0.61313941541304    2.02580382552420   -0.02389275659527
H           0.19472734580817    1.84321184551966    0.83694892116850
H           1.40573691833618    1.43808141006151   -0.04580221767187
O          -1.67025730763465   -0.95683090452728    1.09961415889660
H          -1.39682628258876   -0.23220258490171    1.68362644905204
H          -2.57994885522698   -0.35869911346295   -0.10834992631277
H          -0.82789680358319   -1.32629075330490    0.77291006177211
N          -0.78466506141443    0.99464638740138   -1.97410316262213
H          -0.28717953255761    0.09756267306176   -2.22482170229083
H          -1.73467357441553    0.74475211289009   -1.60045290978871
H          -0.21936861919738    1.46780033098212   -1.18979534530556
H          -0.85138250598280    1.60312380295038   -2.78199345310966
