    26
        -50.46433741  Gyration_radius:  2.51902083093 Dipole_moment: 3.800
 S          -1.91273644144970    1.05451114395867    0.28988560468073
O          -1.30626964400586    0.16083257193644   -0.68077293863527
O          -1.04550994282529    2.19461803791654    0.57872767931567
O          -2.34352322730981    0.38024531748632    1.49546190251224
O          -3.21127499230455    1.63542788963856   -0.40198772363696
H          -3.64873077443230    2.05122351246286    0.33352536332334
H          -1.17006418110176   -0.52547211414640    2.31090284379983
O          -0.29754224542397   -0.91575907729202    2.54268589812782
H          -0.11432154261395   -1.55644395386600    1.83005919525342
O           2.40217629868023    0.03087912591668   -0.36557258110140
H           3.30720019215505    0.05047984437459   -0.67720660949949
O           0.25734476417188   -2.18314948587686   -2.71279129106190
H          -0.66863508554659   -2.23950772163448   -2.95507297903119
H           0.29147722008157   -2.33102401889299   -1.74971193181579
O           0.30090455046162   -1.82858681843339    0.03849051248559
H           1.15753161773722   -1.38074104190245   -0.02922566541951
H          -0.36719587214722   -1.15460980726060   -0.21479492502673
O           0.78549998008243    0.46803162771896   -2.32215853723778
H           0.71346517802138   -0.42997322405919   -2.70448968353595
H          -0.04587240814812    0.57702630173300   -1.82211645176320
H           1.82483379356466    0.26637350447247   -1.16187988574594
N           1.04483174869203    1.14929813164255    1.68709136348350
H           0.23534035236044    1.67892792454673    1.23044283077347
H           1.68909290385083    0.81274431111808    0.94047680787111
H           1.53022131173801    1.73821502043981    2.35477703423899
H           0.59175646570638    0.29643298802667    2.16525417765553
