    26
        -50.45619605  Gyration_radius:  2.57735709187 Dipole_moment: 2.904
 S          -1.15835274706479    1.69252730446654    1.42269510701125
O          -1.03178602449362    1.50836806882498   -0.00016482909979
O           0.14038543675315    1.92398839366942    2.05841587223615
O          -1.89602972478035    0.62498277046745    2.08438573949582
O          -2.00356673436051    3.01901162484483    1.64894331477037
H          -2.10325422972121    3.05737915985113    2.59593449047761
H          -1.09249217661215   -0.63288417136366    1.64750937425813
O           1.63487536862900    0.85348972032588   -1.93199133532480
H           1.66711144087725    1.79720642126384   -2.09494943401601
O          -0.50444354741196   -1.40350862424968    1.39901593521836
H          -0.49406115961163   -1.98607029534425    2.16069214801791
O          -0.98488627901251   -2.29440042098328   -1.10588405952312
H          -0.87604208856394   -1.98722944451668   -0.18219913428454
H          -1.82969199169419   -2.74371027476987   -1.15294695262384
O           1.87214168457083   -1.94823234893973   -0.99769400271545
H           2.05639206860810   -1.28501598546344   -1.66888975298756
H           0.99242367483195   -2.28799494719429   -1.19768400911371
O          -0.84119454760968    0.18612191836076   -2.31287123436537
H          -0.93158604929948   -0.73564153253024   -2.01399025194135
H          -1.10825890461965    0.73002161454183   -1.54978244948997
H           0.70198788501725    0.57767292580824   -2.18300000459250
N           1.57796843141356    0.27067941638544    0.68076272185947
H           1.61170676691033    0.53618997882442   -0.34489643384654
H           0.99169585249538   -0.57836966498308    0.77335909649363
H           2.51629835784758    0.07250136323813    1.01453328895136
H           1.09265919690647    1.03291702946607    1.25069678513147
