    26
        -50.45619600  Gyration_radius:  2.57712804633 Dipole_moment: 2.911
 S          -1.84120189424091    0.83557916842350    1.46261501603300
O          -2.59615016393616    1.07996442645418    0.23186545513228
O          -0.45196472829756    1.18627272495568    1.31568225847652
O          -2.05073218174379   -0.51747254842476    1.95975684357049
O          -2.45571160012540    1.80834427121062    2.55857318721955
H          -3.35094760732230    1.49536629867010    2.65305853049732
H          -1.26269727667809   -1.36495915403923    0.92074915345021
O           1.42169969404584    1.77254856810049   -1.40250748692359
H           1.24847617239490    2.70034113227720   -1.23734001628519
O          -0.80338758347437   -1.87195083269489    0.19042666126325
H          -1.32050829711231   -2.66786968335000    0.05374206908559
O           1.87904578734194   -1.91603191521490    0.50803038723951
H           2.12698133042587   -2.47699140059693    1.24393804412233
H           0.90127131580570   -1.93322659662292    0.45277606084104
O           1.48795596941663   -1.07540368451505   -2.21895161812591
H           1.84497660702930   -1.49027973462281   -1.42535300932648
H           1.88069902053986   -0.19866555747672   -2.25617708129416
O           2.15702442147997    0.80583528775037    0.88815966921076
H           1.27181721107791    0.98949847810390    1.25162412801819
H           2.19562847284585   -0.16111855347456    0.78491483286962
H           1.80826150041214    1.42322028012906   -0.54359261877883
N          -0.82615974998442    0.32074581846948   -1.49709150538246
H          -1.59173608295866    0.72765225260931   -0.87282896888819
H           0.04325383626169    0.92627224882295   -1.46351061253402
H          -0.58787194005593   -0.60524366026177   -1.09855005541876
H          -1.12802225314859    0.20757237531603   -2.46000933407789
