    26
        -50.45619607  Gyration_radius:  2.57731261037 Dipole_moment: 2.910
 S          -0.85007734463867   -2.25460913484992   -0.65124419391187
O          -0.41637318174672   -1.67790112195575    0.59526957041368
O           0.22889200606974   -2.28353269359543   -1.64085390050360
O          -2.05458870788757   -1.63785195779839   -1.19016227743816
O          -1.22330724026506   -3.77137122372554   -0.35992180200940
H          -1.55393088213781   -4.08107484448169   -1.19834695294961
H          -1.64062932902650   -0.14052569660543   -1.26296588092612
O          -1.30583988910094    0.79777336960043   -1.35736701580457
H          -1.69886719539848    1.14028064846261   -2.16225001661388
O           2.28070200437006    0.15791429873024    1.38007829775156
H           2.67322438154844   -0.66519639342827    1.67415331435212
O           1.29433041120554    2.57306026625570   -0.02379041777610
H           0.43936511651867    2.70201667173172    0.40250786525233
H           1.86517495060184    2.18406107735864    0.64488987263438
O          -1.37114323355706    2.14821686209944    0.98160374956682
H          -1.41564028942569    1.65182007732130    0.13840127273560
H          -2.27290347785625    2.34779042494389    1.23595803166156
O          -0.07663553424880    0.20542824549309    2.45836620904540
H           1.41321140885560    0.22653897096182    1.88205828860293
H          -0.55111800934043    0.95625456017676    2.06056478362956
H          -0.33664640894283   -0.57084663700071    1.92993959535822
N           1.33220961856413   -0.00138800672784   -1.11891659171536
H           1.72713791747248    0.03043253561671   -0.13575361148266
H           0.49072143177189    0.60218249431420   -1.14643002264559
H           2.02193059064927    0.34881012031219   -1.77677387427065
H           1.00080087594297   -0.98828290320869   -1.35901429296152
