    26
        -50.46894667  Gyration_radius:  2.47866476413 Dipole_moment: 2.541
 S          -1.31119610201832    0.41330148978165    1.45588090445079
O          -1.52937627023561   -0.08596305056517    0.08840218869537
O          -0.92520909301330    1.79490058016153    1.45836222059246
O          -0.43658741047013   -0.47264361868722    2.20601239828636
O          -2.72590624416618    0.32093689344257    2.16121803444819
H          -2.85217348402286   -0.61708690009429    2.26366684495553
H          -0.52379014144092   -1.29323068785419   -0.59647852807117
O           1.13695406161827    2.69143148439895    0.02219269676322
H           0.44385971000880    2.69519059594269    0.70804790752318
O           0.24056900483223   -1.84271769287058   -0.86287788227018
H           0.27293241885068   -2.53487959499784   -0.17754940693863
O           0.08412027489184   -3.01417745588986    1.57211063621417
H          -0.14631708602044   -2.10961696140818    1.87104707676578
H           0.82861569346279   -3.28511650203471    2.11168679749692
O           1.11593702463888   -0.31486643977736   -2.90037221126244
H           2.04106133758444   -0.18134115899984   -2.68208065736719
H           0.81109381316752   -1.05328999632560   -2.33936516386781
O           1.61069913016932    0.09480375667473    0.53512094658127
H           1.33850514610840   -0.62624555237640   -0.06069520994323
H           1.62915751262767    1.86882307718956    0.21405087477246
H           1.02901185986369   -0.00324387574459    1.30475866704981
N          -0.43964897478445    1.52425142419730   -1.69620329120507
H          -0.98246335956680    0.93073414720814   -1.01179528611145
H           0.22066101456833    2.12756660016130   -1.09556233141802
H           0.13539048333471    0.88043716505719   -2.29406536427116
H          -1.06590034004032    2.09204227335507   -2.25551287190450
