    26
        -50.46894668  Gyration_radius:  2.47880369076 Dipole_moment: 2.547
 S           0.18571624099384   -0.66347740243485    1.88035890962768
O           1.52973048637795   -1.09847677015005    1.63111403426195
O          -0.72798863008508   -1.08351664403261    0.80540364098171
O           0.03969813949752    0.75311779344455    2.17104376082150
O          -0.32037140894218   -1.42312141194943    3.17440695024237
H          -1.14263497812422   -0.98509209165385    3.37020521813212
H          -1.50036360362362    0.05933406868353   -0.21221065681957
O          -1.70236277876751    0.82957854906370   -0.78055292365572
H          -2.07794063120641    1.47907601942821   -0.15856978357958
O           2.79409191439351   -0.54849421419295   -0.65330773349831
H           2.68626818793023   -0.81782095060323    0.27761502165498
O          -0.60537323449825   -0.08435800408435   -3.06385042109326
H          -0.01744571329601    0.63078964477844   -3.31731448698289
H          -1.20502916710873    0.28673669042547   -2.38885528165507
O          -2.06572823314268    2.25039556455164    1.49452014959527
H          -1.31534939568455    1.71094123906389    1.82102719650459
H          -1.80933730644237    3.16369757348787    1.63213133810065
O           0.95271071724596    1.37750977582722   -0.29480481465710
H           0.83134063323121    1.27838534456733    0.66221712221698
H           2.37115756661475    0.33266613537134   -0.67564525671319
H           0.04896053290590    1.32583264012257   -0.65473975242494
N           0.60799420179886   -1.78148693348915   -1.36093380039004
H           0.14611469704130   -1.23097917640928   -2.12657138424086
H           0.06015890780434   -1.62159427044128   -0.47236060172757
H           0.64945724468517   -2.76914890360504   -1.58509506383995
H           1.58652558040896   -1.37049426579512   -1.17523139084438
