    26
        -50.46147014  Gyration_radius:  2.59045907665 Dipole_moment: 4.225
 S           0.69743283226664    0.00602401362126   -0.27932816028065
O           0.26569456769274   -1.45959202624188    0.09392884827253
O           1.04599934230523    0.04767600991975   -1.67879379072879
O          -0.42510393589236    0.86373455152152    0.07488390703686
O           1.83507428599360    0.27189653436536    0.61802744567259
O          -2.34774163565848   -1.28249430679945   -2.95069559536849
H          -2.66044141742311   -1.30370950390157   -3.85634169176691
O           1.53560659420494    2.52815851600137    2.07148879490225
H           1.75950674054377    1.76865154910479    1.49731905970443
H           1.50420456148480    3.29349380680760    1.49556106789568
O          -0.75393473225759    1.24516826235845    2.65003465100781
H          -0.87174668228840    1.14550376423659    1.67584283045629
H           0.04909753462800    0.00217059401094    2.84422442757453
H          -0.05077259489061    1.92382715986704    2.71073929768697
O          -1.28868666572319    1.11332987428265   -2.46083096551202
H          -1.38555142458166    1.25843169508692   -1.50792330049035
H          -0.35394626886877    0.85889218308993   -2.53112393301175
H          -2.07102595022871   -0.35049108565639   -2.77642338554173
O           0.00129301437469   -2.36039805818249   -2.26387402364568
H          -0.91553915689733   -2.11456056543250   -2.52979529232999
H           0.55668156387893   -1.60493329292716   -2.51022451731289
H           0.11223708712030   -1.94074016964670   -0.78391535350708
N           0.77148453726331   -0.81447288507799    2.68694976906036
H           0.29847753683938   -1.63384878037644    2.30892611819287
H           1.31390004660105   -1.03492829324175    3.51591567374981
H           1.37780023952080   -0.42678954679544    1.88542812830543
