    26
        -50.45619600  Gyration_radius:  2.57709763844 Dipole_moment: 2.912
 S          -2.35824505120480   -0.60778262947483   -0.54503149116202
O          -2.31902801432978    0.46890999199549   -1.53680799463491
O          -1.68337056029437   -0.23735845879778    0.67232713578001
O          -1.89604112728833   -1.87003142015759   -1.10619019767036
O          -3.89092998501516   -0.82040766735381   -0.18392397438623
H          -4.27180761854666   -1.11514225222617   -1.00632472344147
H          -0.36893861112325   -1.61406872453741   -1.25042071612941
O           0.45633709497448    2.24734254375895    1.36725887716244
H          -0.30850177186720    2.72091967238278    1.69717612151897
O           0.59366753790494   -1.37860350217070   -1.38965362445619
H           0.85518008009135   -1.80299502989922   -2.20885395402652
O           2.68991286437161    1.01976999026631   -0.14447568061368
H           2.74885027692391    0.15471655689461    0.27696448126994
H           2.39379581208150    1.62588432670526    0.54052328671113
O           2.03742383089762   -1.58987582309138    0.88373297348767
H           2.15507027146533   -2.50812663016981    1.13014502300321
H           1.50071661659548   -1.58052105499177    0.06441825315062
O           0.30920737347316   -0.10568267178309    2.44626682981124
H           0.98736054275774   -0.65439523961274    2.01482717943221
H           0.45822861746084    1.37602316673084    1.86723420516365
H          -0.51343878888567   -0.28122670985904    1.95445368358482
N           0.08649427230777    1.32811076985828   -1.12030936883562
H           0.20344971380584    1.71448081270196   -0.14015766106035
H           0.59730715534427    0.42850703021753   -1.17360640547984
H          -0.93927520548994    1.10185969281709   -1.31516436891413
H           0.47657465359654    1.97969326977386   -1.79440787927358
