    26
        -50.46377095  Gyration_radius:  2.58324923206 Dipole_moment: 2.900
 S           0.29616255150278    0.93978472671730    1.42764821614069
O          -1.13778117286656    0.74157069064706    1.21527395938822
O           0.86124546100191    1.91393033647196    0.51256583251107
O           1.00631251473426   -0.33661005239863    1.34039405242157
O           0.49255205620809    1.49838271840645    2.87033529333673
H          -0.08716418807117    0.93026780541001    3.41828792686222
H           2.11115903351697   -0.73608164943796    0.17375483605392
O          -1.47193584711720   -0.57603286076416   -1.05667094608115
H          -1.54503649187286   -0.04123282208946   -0.23627058871262
O           2.66631961472467   -0.91928245519835   -0.62206521002801
H           3.55282942607885   -0.64022341956802   -0.38966230537013
O          -1.47992394933323   -0.05409817084325    3.68555830733492
H          -2.24469861070505    0.36094691591822    4.09061247976154
H          -1.57787238169695    0.06485557053016    2.71824213968611
O          -1.31999763844450    0.84014524156200   -3.55549296950548
H          -1.68109971847058    0.31347906922920   -2.82910313743684
H          -2.06891584644931    1.14731123370675   -4.06727196226039
O          -0.05972853193091   -2.48836673071833    0.14948452946331
H           0.72706225559011   -2.82543530328336   -0.28497091069630
H           0.25917615646863   -1.78783135909234    0.75315389225659
H          -1.15449990980953   -1.44745624077793   -0.73448403998203
N           0.79080138362534    0.62923123801299   -1.74796404632924
H          -0.09739407550750    0.07339053479335   -1.56976447110931
H           0.84530516347795    1.32205246962265   -0.94839749491461
H           1.61545912010833    0.00459481665069   -1.65322901311317
H           0.70166364522592    1.07270768649845   -2.65996435968677
