    26
        -50.45861727  Gyration_radius:  2.62157456234 Dipole_moment: 2.779
 S          -1.46540015649654    1.26498758508500    1.18140050965325
O          -2.44072131662051    0.53938484022781    0.41929454638640
O          -0.51423507701193    2.02610943121658    0.37406102456515
O          -0.74275078246251    0.41513735860323    2.13362052000429
O          -2.23861793332751    2.34051451717674    2.04856246378017
H          -1.51899733666244    2.88909725094246    2.34120258352574
H          -0.83752159047441   -1.19777803430766    1.74130230954944
O           0.49825890170117   -0.99025096520572   -2.37756605042481
H           0.82889518522625   -1.83954215649847   -2.67356128440106
O          -0.75158095627825   -2.14742488642552    1.49238995362586
H          -1.45251910209218   -2.60193389380766    1.96215065278815
O           1.90302154748646    1.47036839441033   -2.93484991893925
H           1.32459848604795    2.20189019076199   -3.15600994960142
H           1.38027745254326    0.66664240873296   -3.05752625677698
O           1.72257030121371   -0.62814572945301    2.01855558395029
H           1.42971246670578   -1.54360522723486    1.95618018086380
H           0.91444050820665   -0.13703094006383    2.27021637519463
O          -1.63023839812690   -1.54825219616656   -1.02641987053085
H          -2.06985272637998   -0.74919490074243   -0.67538957100342
H          -0.39331798738980   -1.17778974226373   -1.95550816105896
H          -1.28190311032681   -1.98205762300319   -0.22526612930305
N           1.49037452806608    0.53985822560798   -0.36757283695103
H           1.14460885775499   -0.14736661810479   -1.07308193682856
H           1.80285986076373    0.06264561518070    0.51323644855604
H           2.21782872204061    1.09168791759111   -0.82343815171236
H           0.68020962591823    1.18204916770979   -0.10598301493557
