    26
        -50.45865166  Gyration_radius:  2.6479279144 Dipole_moment: 2.985
 S          -0.93382545398221    0.36003571174897   -2.10146326510727
O           0.52391540440098    0.27464622803641   -2.14811372498006
O          -1.43790485261781    1.52473526635925   -1.43131311637237
O          -1.49200057949560   -0.88503626440906   -1.56327944580624
O          -1.39819929459458    0.43591848274313   -3.61343444313246
H          -0.81774147554924   -0.20389567343630   -4.01116303681102
H          -2.16070335239532   -0.70602333093445   -0.05424694695917
O          -2.46292914071917   -0.69044202701166    0.88406594732889
H          -3.41530355140804   -0.58959161432124    0.84667223983307
O           1.08157047039979    1.17731545495913    2.04079563810537
H           0.95581092781972    0.95470712184259    2.96458023290560
O          -0.38643126616408   -2.65581313936547    0.10909189356511
H          -1.01332839023953   -2.50692491944813    0.82481041144386
H          -0.79113831997197   -2.20381186288425   -0.65934316690032
O           3.70102127206342    0.62536099065920    0.96265899155363
H           2.97051460265432    1.05280463517092    1.43035469089862
H           4.19825174777018    1.32497342932815    0.53748367792528
O          -1.29531481964304    1.75808827108856    1.22234189658741
H           0.19505614290726    1.53197892942344    1.72722573605089
H          -1.31983853591553    1.90526781548768    0.25681162876329
H          -1.76262435045917    0.90854281912470    1.33052749451979
N           1.42213451624644   -0.69414562223099    0.09568752488379
H           1.20381463657406   -0.02758679869884    0.86869828618406
H           2.43502070937460   -0.82542720502600    0.10388048201647
H           0.87963832502904   -1.58555340075977    0.20556548291159
H           1.12053463788232   -0.26012329740012   -0.82889509941127
