    26
        -50.46664386  Gyration_radius:  2.50041856824 Dipole_moment: 4.313
 S          -2.04583183778992   -0.83896114840470   -0.09008405399282
O          -0.99986820578555   -1.49923858929627   -0.87354328531999
O          -1.59173249158262    0.47837741975815    0.34285822357656
O          -2.60691866910067   -1.64026243184527    0.96005859052241
O          -3.21945484868978   -0.57278708476388   -1.13351430333183
H          -4.00055356201847   -0.64985591859008   -0.59511878931998
H          -1.06343444567775   -2.55220570532364    1.72985427876996
O           2.56916970772077   -0.15189853502102    0.00025880726962
H           3.02539785819954   -0.98378481622320    0.13279348442558
O          -0.13984585082577   -2.61377362011146    1.44718682936117
H          -0.20794545085755   -2.51139508635002    0.48636869638201
O          -0.32635041440915    2.41548705439062   -0.98234382603388
H           0.33830208939208    2.68422691288753   -0.31321702299944
H          -0.99006860673884    1.90304815596677   -0.48104704338969
O           1.59725785154594    2.50857064246029    0.92756438830629
H           1.20087118906060    1.90534327060204    1.56830204892092
H           2.36146447970785    2.04323922362802    0.57433187314347
O           0.59853114070764   -0.05838474289085    1.72799208040104
H           1.85970065820534   -0.11592439642720    0.70275415415350
H          -0.23068777247567    0.22746350390618    1.28867822006402
H           0.45602720028781   -1.01559837234515    1.88562882836452
N           0.69707608785556    0.20449043132441   -1.89235059816614
H           0.88597741148085    0.10591051196858   -2.88312926477057
H          -0.02473316461133   -0.50467151248793   -1.56889723106882
H           1.55479077650244    0.05213026387789   -1.31254824450701
H           0.30285888982754    1.18045454932874   -1.64883682074893
