    26
        -50.46764440  Gyration_radius:  2.52658000519 Dipole_moment: 3.899
 S           0.82894962575007    2.14205596015121    0.31588701921539
O          -0.59251168002508    1.83038735348664    0.15477493513786
O           1.63076723548185    1.52801026087022   -0.71064827611654
O           1.27706246744587    1.86684440835839    1.67158949165320
O           0.95847500748131    3.71114345709386    0.14406866373384
H           0.71164055205643    3.99652853490957    1.01683763350115
H           1.29512148246401    0.32060516051683    2.00914512989703
O          -2.04359148319420   -2.35202481927055   -0.04520100400413
H          -1.97596490993007   -3.11958808498469    0.52384553192502
O           1.25564335454601   -0.66336083773563    2.16181628972645
H           1.78391979738721   -0.82727525972855    2.94462529741360
O          -1.28930487516262    0.92061118673103   -2.17271290095456
H          -2.24487257659559    0.93997435599741   -2.08450862295110
H          -0.94310245995043    1.35282950860675   -1.35181025821570
O           1.94073016653256   -1.05658489788028   -0.45044209295094
H           1.75944399987319   -1.11924040167359    0.50499720173693
H           1.99086258444389   -0.08788966714125   -0.62199859618303
O          -1.41384106066165   -0.33725566008147    1.50142978546853
H          -1.22983861744201    0.50375099641701    1.03784772129810
H          -1.91935609414403   -1.56180197914161    0.54921239972461
H          -0.56499118512786   -0.58468859824407    1.89960554057971
N          -0.24287516991217   -1.49875329613789   -1.81699112719355
H          -0.08836789692790   -2.03196093249790   -2.66506496853534
H          -0.61838900311674   -0.53691265836281   -2.04804687591791
H          -0.94444712373317   -1.96490064350670   -1.19066094676308
H           0.67883783247283   -1.37050345682147   -1.27759697122904
