    26
        -50.46764424  Gyration_radius:  2.52632058779 Dipole_moment: 3.893
 S          -2.24113875939148   -0.23914089092696    0.54211245084530
O          -2.01971143594259   -0.98260518489418   -0.67124675623451
O          -1.53534338322413    1.04348024089510    0.53033751862373
O          -1.96057477684851   -0.98261458868691    1.75998521262747
O          -3.78494293019584    0.10743520521352    0.61164399677692
H          -3.88223697789630    0.25480114411335    1.54593114969300
H          -0.46332738130017   -1.48967897815850    1.83787806891628
O           2.83686554670467    1.27741454920850   -0.14725371413772
H           3.60781316500627    0.89712062779543    0.27534165752417
O           0.49760590736713   -1.75361218895160    1.83362097530383
H           0.58354307877710   -2.43647052940724    2.50074087530134
O          -0.72989538314415    1.86245455758701   -1.79590103178763
H          -1.14971064435475    1.51016637951198   -0.97120690425034
H          -0.44746520555001    2.75281732948708   -1.57518104875155
O           0.36134635857116   -2.04608886220711   -0.87675660556814
H          -0.59005969176542   -1.79110485609175   -0.89395609916032
H           0.58549203377352   -2.06238926334184    0.07143337515606
O           0.91894975396333    0.97331273417274    1.60656519640265
H           0.01420349740409    1.11762706387626    1.26506788159837
H           0.94246146853507    0.03220506337862    1.83930657636854
H           2.11995900422257    1.27586343724813    0.54518875544285
N           1.28227067334672    0.13355814035008   -1.98676734523527
H           2.00743880129393    0.55311223330012   -1.35430454304472
H           0.94461220781575   -0.79641002669957   -1.56485874963918
H           0.45922145166015    0.79822978048106   -2.00442781708942
H           1.64262360131962   -0.00948311711702   -2.92329305591221
