    26
        -50.46764416  Gyration_radius:  2.52626103158 Dipole_moment: 3.893
 S          -1.02598655215116   -0.75281717063997    1.93753494647041
O          -2.07108122155029   -0.30107837362716    1.05555748392324
O           0.12703711618741    0.14918596187835    1.92081745352326
O          -0.61755984084375   -2.13233462960185    1.72568360848279
O          -1.59861811710369   -0.70986876244998    3.41349972089042
H          -1.01446573050464   -1.32812890573511    3.83863138136396
H          -0.08132036189829   -2.39525721835518    0.25985366425592
O           2.20830858875860    1.18061915851984   -1.85169981157924
H           2.63520754925874    0.67887088913621   -2.54710443970842
O           0.26849957986407   -2.48285460887760   -0.66909506736393
H           0.28834638791341   -3.42338521662122   -0.85280619132717
O          -1.56909773087224   -0.63869533783869   -1.48940218196248
H          -1.93164951022377   -0.53959407210853   -0.57879927931976
H          -0.90446846321292   -1.34624225921653   -1.40453817282970
O          -0.30228191470170    2.50595493474719    0.92479502526700
H          -0.25942812994042    1.61900376619617    1.36287826147020
H           0.52174541015555    2.94133036128155    1.15420601103142
O           2.02471894319226   -0.50259337228554    0.14315722407319
H           2.22952464184022    0.59662565803185   -1.04422536069044
H           1.42963026991819   -0.22717081803556    0.86846773193855
H           1.59904499035992   -1.28832311534668   -0.23349236545854
N          -0.39631314253025    1.69420591053779   -1.60639121458909
H           0.61711467158555    1.55058960038696   -1.83951774041572
H          -0.89740825528633    0.74259919840161   -1.61821888297665
H          -0.44033132052224    2.07061042689180   -0.61854506517090
H          -0.83916786769699    2.33874797471750   -2.25124674930189
