    26
        -50.46764430  Gyration_radius:  2.52627133195 Dipole_moment: 3.895
 S           0.69112829246693    2.14838073242971    0.52906076477903
O          -0.09306421602860    2.24421891838470   -0.67504333435322
O           1.57944690344812    0.98482603769608    0.50802015539688
O          -0.08726520257786    2.19352043060015    1.75654793545399
O           1.63218920407536    3.42097929983697    0.58534960295452
H           1.81894034603507    3.45083706065811    1.51719059850270
H          -1.15375725171287    1.02781510998796    1.85064018248575
O           0.02308099710122   -3.11064567984819   -0.14153945262479
H          -0.63126793521574   -3.66142424843509    0.28978102802233
O          -1.78272345400715    0.25489429293765    1.85563942765133
H          -2.43432676986927    0.45328516823127    2.53003310873932
O           1.97698912594486   -0.08751493221214   -1.82070077967870
H           1.83372390312501    0.44047399033760   -0.99536302174062
H           2.68035446479788   -0.70464779584666   -1.60699679591344
O          -2.02855744825576    0.49327690028072   -0.85233919891877
H          -2.12192734269921    0.29638543572774    0.09744613981134
H          -1.41219877106554    1.26124480533750   -0.87891976682931
O           0.54025031737254   -1.23035275232163    1.60284721240571
H          -0.32747676859933   -0.87210849478076    1.84594999414396
H           0.31943264684346   -2.45284281472269    0.54622123778217
H           1.03231972583840   -0.46118103703550    1.25307880896167
N          -0.41947880574686   -1.23076328210333   -1.97933695609398
H          -0.32005551545497   -2.06233370061229   -1.34627980317552
H          -1.12864521520262   -0.54564423813130   -1.54976836558950
H           0.52051045430860   -0.74611902417959   -2.00978680114466
H          -0.70762169490369   -1.50456018232863   -2.91173190102820
