    26
        -50.45960418  Gyration_radius:  2.5456771917 Dipole_moment: 5.063
 S          -2.09347830492374   -0.76308401634533    0.23540588136445
O          -2.49329772871293    0.63365607305152    0.28985269486315
O          -0.96072700411522   -1.04422558829880    1.09550821173224
O          -1.91469433037333   -1.22063502249239   -1.13160880424466
O          -3.29819817864868   -1.61898321291090    0.82435211530885
H          -3.92354993759506   -1.64963173941238    0.10676820479541
H          -0.92897041137512   -0.11314126950361   -1.59593996433180
O           3.01129485218484    0.74700259716189    0.29320339322032
H           3.84036685385430    1.07485109102671   -0.05671451663640
O          -0.33851304710493    0.64217260843634   -1.87922874075762
H          -0.84828512363988    1.11857690785193   -2.53737377343509
O           0.87094196261562   -2.70770724563251    0.14588581442297
H           0.12159487534466   -2.15044639409497    0.44602069595819
H           1.35558847900338   -2.94266967932596    0.93921498812811
O          -0.93688403056762    1.36897556634794    2.21537684193076
H          -1.69993544777469    1.27656582363543    1.59599987398791
H          -0.69710511152502    0.44154132497959    2.35902540557380
O           2.02295940164040   -0.89884922038443   -1.45979180190950
H           2.70071907044570    0.04285353803833   -0.34845517939047
H           1.66028806292118   -1.66412756607555   -0.96099779736548
H           1.24796671739503   -0.44813087183205   -1.82001461677165
N           0.66833763015405    1.99567770668290    0.24606725119090
H           0.07312956259324    1.78717515370691    1.11925137425114
H           1.63381076791157    1.58334805545199    0.35730514351989
H           0.21150312067237    1.51324938268398   -0.56413605955331
H           0.71513730960396    2.99598601709398    0.08502335397713
