    26
        -50.45960418  Gyration_radius:  2.54565409795 Dipole_moment: 5.064
 S          -1.05089495203607   -1.04363923650960    1.68111695313795
O           0.11539170128836   -0.18803254407175    1.77901291340354
O          -0.77130348177110   -2.27609134229364    0.96237359299279
O          -2.22637374639452   -0.36887078731049    1.15859969508203
O          -1.41130514327943   -1.44507843126360    3.17763786612020
H          -2.31058559899696   -1.75265044540187    3.11695171748867
H          -1.79234261320893   -0.31590273357117   -0.33222783701071
O          -1.50848421402065   -0.34444559156675   -1.29034901617761
H          -2.14889146613262   -0.91540951807786   -1.71911943389722
O           1.92256959929947    1.62513177829122   -1.83669883723403
H           2.13583161204181    2.06639937070541   -2.65956005935806
O           1.78494477931915   -1.98090016289009    0.74122735223536
H           1.73465191265877   -1.21270338049049    1.32912679262827
H           0.88003647480862   -2.36159479232980    0.84456355035667
O          -0.28967219899571    2.41443305125369    1.48345509862671
H           0.52289763579516    2.78277400403833    1.83491742332231
H          -0.23412104758974    1.44770125105929    1.63985584013173
O          -0.49691598898011    2.31885875581931   -1.18597472758370
H          -0.49722783922933    2.48109192917528   -0.21664383565912
H           1.03050480944614    1.98401939698232   -1.55484556126164
H          -1.02832318358221    1.52058863903904   -1.30383081068722
N           1.13590998551533   -0.89469162124456   -1.54924841782657
H           1.33296585618897   -1.50141982345631   -2.33778504292838
H           1.56670584405436    0.05921186982507   -1.68704299157097
H           0.10284079604866   -0.76028056569816   -1.43723405513876
H           1.50119047789008   -1.33849905997002   -0.63827815945949
