    26
        -50.46390579  Gyration_radius:  2.53327205313 Dipole_moment: 3.391
 S          -0.73864955847170   -0.29156204625604   -2.09294773664330
O          -0.70606698569565    1.16562677669505   -2.01576360541295
O          -0.67708510712574   -0.88807803183741   -0.76956662906778
O           0.21064437516422   -0.82904981870918   -3.03722975718467
O          -2.18017004320987   -0.67439501722466   -2.64984769715906
H          -2.07723775548666   -0.56898674806545   -3.59037685054402
H           1.53553159893066   -0.40942497722366   -2.14515035788635
O          -0.64126261535435   -1.36834364591165    3.11467068610204
H          -0.93321369538832   -2.25611219709032    3.32476457526263
O           2.01911531283942    1.25638242954208    0.64480492327877
H           2.81576151445497    1.78336431851621    0.71861925880934
O          -2.10535090295208   -0.00946758605775    1.32055627418988
H          -1.81458615660263   -0.50337692724422    0.52976153999171
H          -1.68233073233709   -0.46697120590308    2.08160951181717
O           2.24325622034553   -0.27744340465216   -1.47796611235359
H           2.08938782748561    0.77069992407653   -0.21855249790018
H           2.39228037055279   -1.14663475795363   -1.09310867585556
O           1.15226366469020   -1.43228946844058    1.13718917618603
H           0.10048806661013   -1.46716043475165    2.47185538125332
H           0.51076268282283   -1.34938278417713    0.40557929413125
H           1.56800699100840   -0.56375234190666    1.21265126266202
N          -0.61484583226446    1.93509818413146    0.44795232070323
H          -0.68934082581308    1.69563591530323   -0.59415747012351
H           0.37696573835377    1.77943013651582    0.70544542396948
H          -0.90041034381436    2.89141340720537    0.62434222419265
H          -1.25391381873086    1.22478031142619    0.94486554757648
