    26
        -50.46390590  Gyration_radius:  2.53321747869 Dipole_moment: 3.386
 S          -0.15221432467619    2.20887890262102    0.32610340385232
O           0.97539527685472    1.88391313395755    1.19390003327649
O          -0.89605750920678    1.01452458383852   -0.03614445392755
O           0.21529593396024    3.04718226429116   -0.78926714621335
O          -1.15955543496873    3.06823213652795    1.21040898899258
H          -0.79293449554313    3.94503959823435    1.15489288560166
H           1.09861256261081    1.87732380151115   -1.54926779038208
O           1.99920565269003   -1.19190607337496   -0.80525824916073
H           2.85859590931845   -1.48977925286644   -1.10609912372466
O          -2.18370435031610   -2.67764066724698   -0.20615492344035
H          -3.09208485303369   -2.68473198950417   -0.51016558096336
O          -1.55944218146625   -0.90539423547575    1.71140466642824
H          -1.84895691027308   -1.64172924975839    1.12695929221883
H          -1.58009783048174   -0.10727175047507    1.14890777919690
O           1.45406157655378    1.08306678993851   -2.00350490149346
H           0.77538496445588    0.83004929505080   -2.63689627919165
H           1.87129566072759   -0.28612936230395   -1.19199789817698
O          -0.70863565421718   -1.06662408477963   -1.74270181301652
H           0.18906606986223   -1.35958991428760   -1.54000338278691
H          -1.67193078809857   -2.16870702680586   -0.87854667721073
H          -0.84271900685169   -0.25761189876402   -1.21245539483436
N           1.02881833665126   -0.65110953342396    1.68513555647055
H           1.05178994501098    0.41299699594947    1.55904210738293
H           1.42618434971812   -1.04899771909127    0.81433593277629
H           1.55964618565507   -0.93396406835724    2.50085927080083
H          -0.01501909493247   -0.90002065540664    1.77651369752488
