    26
        -50.45960419  Gyration_radius:  2.54576872831 Dipole_moment: 5.066
 S           1.26313987786870   -0.52077755456654   -1.77625597366578
O           2.06693504372886    0.63762884654117   -1.42171598886932
O          -0.15647289152447   -0.22639090136742   -1.77281895038414
O           1.61827601152696   -1.68667790905639   -0.98588010782508
O           1.61706480753936   -0.89392456430613   -3.28163750302439
H           2.45170022332300   -1.34700643713029   -3.21020772692047
H           1.47118357509378   -1.04042661257816    0.41924008746228
O           1.41945063334108   -0.58157715554135    1.30592582579515
H           2.31921276238010   -0.58760809093854    1.63815772881891
O          -2.25348100469070    0.83287584429920    1.98574848994205
H          -2.61889560953101    0.90999430603406    2.86768779144980
O           0.16641369088281    2.38632310772635   -1.39074448385712
H           1.03888219806985    1.93668460945172   -1.49545052757709
H          -0.43390176091105    1.72073814507807   -1.75814340375163
O          -1.75750543994874   -2.09651691717281   -0.79114481277963
H          -2.61410963127528   -1.81543518599989   -1.11776997678516
H          -1.10486227369237   -1.48311591279589   -1.19103732209734
O          -1.22253456793767   -1.54439023500966    1.77529202018315
H          -0.26736248752510   -1.40304906434236    1.74100242345863
H          -1.95416100202228   -0.11895943173063    1.89388689313459
H          -1.45976475941336   -1.88105788146173    0.88292497272130
N           0.08471580044366    1.77584948185416    1.15248674351189
H           0.66364923400506    0.90300245305363    1.18167678446275
H           0.05403353904887    2.10503276234774    0.12732088486674
H          -0.88588584954857    1.52381698278000    1.48257016267768
H           0.49427987098353    2.49496731475032    1.73888595961675
