    26
        -50.46651516  Gyration_radius:  2.52857199508 Dipole_moment: 2.403
 S          -1.84547253658796   -1.28197788688794   -0.11037877253877
O          -1.82482375145521   -1.32275487993793   -1.54879278765047
O          -1.73678413528614    0.10074721173461    0.38028652388934
O          -0.87165265397858   -2.14439711928360    0.53230536338710
O          -3.25582553776372   -1.80846242307324    0.37744140502879
H          -3.02757514600298   -2.20562555147098    1.21202055701559
H           0.62356599079569   -1.82752603273469    0.09255916102066
O           1.65576647523232    2.60963547596671    0.10498439207696
H           2.50598950496435    2.76362464590301   -0.30901796254570
O           1.53687206755029   -1.60331753297654   -0.22996402008245
H           2.05982425536429   -2.39674161612267   -0.10180828267439
O           0.51934849262584   -0.59888712728644   -2.55376374509694
H          -0.35861046618071   -1.00959269620149   -2.40983382106661
H           1.08800249179601   -0.99470185674228   -1.86830439206216
O          -0.49406492347832    0.32765707826007    2.71146443016305
H          -0.80246790369999    1.17190712021801    3.04554201982358
H          -0.97729563779873    0.17267664256744    1.87286308183213
O           1.95109972685035    0.47178162437096    1.54881147035003
H           1.15016025205452    0.37962040470136    2.10353879295217
H           1.90858815804468   -0.26948891763794    0.91981441116868
H           1.79639996655879    1.84118992218375    0.73379260728843
N          -0.32317977665872    1.54928488315585   -1.31014271099904
H           0.09214603392483    0.78027915957581   -1.92675214379224
H          -0.86986900355312    2.20068753646376   -1.86231833894037
H          -0.94735861817714    1.04796575203395   -0.62221917358815
H           0.44721667485529    2.04641618321921   -0.78212805495962
