    26
        -50.46575181  Gyration_radius:  2.54850197879 Dipole_moment: 4.199
 S          -1.13902692503056   -0.50176249024212    1.01179055408666
O          -0.55695964832457    0.77824418424199    1.40679843191480
O          -0.15222059707253   -1.55636683812523    1.00903869346782
O          -1.82327375407131   -0.37381657209095   -0.28215640546629
O          -2.22207690764260   -0.87884861695955    2.07071894572035
H          -2.91518405496181   -0.21025671061439    1.91295143134318
H          -0.84164483858712    0.02365090601005   -1.48457022437136
O          -0.23203774068504    0.23659069153357   -2.23881134703496
H          -0.76459366210459    0.18269655749659   -3.03417781221125
O           2.59397268574308   -1.57848500240983    0.82756486224990
H           1.77624094519548   -1.83355857086486    1.28227091453110
O           1.50255302739253    2.14880780400600   -1.47043801655114
H           0.92105321466641    2.89495642815547   -1.31100431019932
H           0.93595776592791    1.44582710648507   -1.84991958468233
O          -3.86789868762242    0.80269405365761    0.84642811288839
H          -3.16646982571505    0.51440722934107    0.22586956627746
H          -4.68339770567814    0.39584295851817    0.54492699340001
O           1.12607437104661   -2.06075087913308   -1.36511862967710
H           0.84210148510979   -1.29840594530320   -1.88763371886366
H           2.40947663284749   -1.84037669492202   -0.09839060558987
H           0.50328477372212   -2.09453871249089   -0.61941466377556
N           1.97630027736847    0.97383317239993    0.90674201927869
H           2.34775576789645   -0.02762601683613    0.84942399156321
H           2.49858601355984    1.51549948147610    1.58647769004876
H           1.98495041083110    1.43699916325567   -0.03120349015847
H           0.94647698618549    0.90474331340976    1.19183659180758
