    26
        -50.46575172  Gyration_radius:  2.54850579039 Dipole_moment: 4.194
 S          -1.55586796902213   -0.20469086203986    0.32950867464466
O          -1.32121400746468    1.20980826260949    0.50299296487527
O          -0.68633776871318   -1.00341007396375    1.18923180727964
O          -1.41607963373538   -0.62658941526017   -1.07094022686015
O          -3.03189289022620   -0.48796310070478    0.75095424395479
H          -3.15857529942821   -1.41415160578726    0.47084315081689
H           0.05975497063961   -0.41003970978861   -1.65615859319352
O           0.96350200207117   -0.24640795821601   -2.03339496161438
H           0.90272077665851   -0.45267579826630   -2.96767942307025
O           0.80777941846226    2.67388914128192    1.45182576010895
H          -0.13497442613167    2.44743416089923    1.46981197379965
O          -2.90104534773588   -2.73711708978924   -0.64887138325640
H          -3.56983248681675   -2.80543319042172   -1.33405876488004
H          -2.22971643142888   -2.10312737814914   -0.97691091982197
O           2.82797441762798   -0.99086021547992   -0.23740156460397
H           2.67745902267525   -1.93606368394522   -0.17201156354632
H           2.23990496187116   -0.67658891639615   -0.95479655151500
O           0.48042890856382    2.38990938084584   -1.19521237089875
H           0.87212372260321    1.61068961243316   -1.61259594162024
H          -0.34308541182319    2.06635977715361   -0.79235517555225
H           0.96733877271369    2.83161047315316    0.49803188540951
N           1.53250760582322    0.17506145994034    1.81645636669057
H           1.87241335457651   -0.03609308108961    2.74817256880155
H           1.35669542716092    1.22400454912888    1.70256313931130
H           2.19014073352968   -0.18193705972294    1.08544382406659
H           0.59787756752693   -0.31561769841794    1.63655108067780
