    26
        -50.46651512  Gyration_radius:  2.52861863817 Dipole_moment: 2.403
 S          -1.44642318004337    1.31887945712408   -1.10907411953976
O          -1.20678318132676   -0.11965879131358   -1.30313246443417
O          -0.39531512530489    2.10229919464791   -1.70286452222694
O          -1.71266153985893    1.62277225760663    0.28444706905338
O          -2.79424654513537    1.64352309140698   -1.87213696220073
H          -3.43461638746320    1.52348644816473   -1.17787287319020
H          -0.43393341027601    1.44192609044361    1.21258149447110
O           0.39863747098137    1.33365721881039    1.74509219899072
H           0.28686829920150    1.88963016856219    2.51828411822200
O           1.86230794591182   -2.42311749241868    0.47226995181357
H           2.69946994284225   -2.41761117269184    0.93818406449129
O           1.92934233365661    1.79226262850102   -0.46646095489460
H           1.58865306840698    1.71587238709594    0.44346974012171
H           1.17488547298357    2.14825279018927   -0.98054453562935
O          -2.13586230714210   -1.64832784930169    0.65395313547295
H          -2.22257504927309   -2.50917785809788    0.24058995508568
H          -1.85047710809459   -1.03297853668047   -0.05363219375355
O           0.13430076416141   -1.39315100737723    2.11403351298134
H           1.17984551446130   -2.11352195358793    1.13867467425902
H           0.28268250345480   -0.43234867639416    2.07195756203484
H          -0.75442780980214   -1.52951012629586    1.72762910367078
N           1.38484252956804   -0.59808273936053   -1.39440367938472
H           1.73898144218662   -0.80996086151659   -2.32056774832558
H           0.33725145119096   -0.47330109841775   -1.42929783305936
H           1.62043173576344   -1.36814301140506   -0.70817526049727
H           1.76882116894774    0.33632945230620   -1.04300342353039
