    26
        -50.46556475  Gyration_radius:  2.55414197065 Dipole_moment: 3.624
 S          -0.32139201596018    1.51555086480970    1.57796686679988
O          -0.14718961985088    0.48466306680234    2.56454555220824
O          -1.40244252696402    1.25285710124361    0.63033596689744
O           0.91048378136586    1.84305719456617    0.86183554349499
O          -0.74005951002647    2.82728955084619    2.35896168886267
H          -0.87944891062126    3.46726591638753    1.66798925405677
H           1.76494709116341    0.37655587404578    1.07061918476340
O           2.09281283640753   -0.53301087319160    1.20665511819626
H           1.84551245194171   -0.73305925601957    2.11384504082743
O          -1.26524414429961   -2.22713217397911   -2.60413210644232
H          -1.77496076362723   -2.99709954773719   -2.85816447481315
O          -1.54796753678990   -1.46387576531113    1.44009170609310
H          -1.04796220118597   -0.85134770568787    2.01640171951156
H          -2.19127681970332   -0.89793719173247    1.00444679455272
O           1.72127443893898    1.86401245569339   -1.66175035467353
H           2.61005208875823    1.50322084529882   -1.64259415743878
H           1.48159743435647    2.02467175694507   -0.72460423757666
O           0.42041814959699   -2.02739037719484   -0.26038177774096
H          -0.32118405090120   -2.01624599413509    0.39013744422761
H          -0.66287483815373   -2.51380444926743   -1.90505431405340
H           1.18410480363839   -1.65904016299734    0.23516155144944
N          -0.35336217733435    0.16454362998781   -1.52268182009476
H          -0.96448475878398   -0.11569009573829   -2.28807575991103
H           0.42615096693079    0.78642969104870   -1.82817356687788
H          -0.87692511495936    0.65318632117279   -0.74981972654599
H           0.03942093603650   -0.72767068586382   -1.09356116578651
