    26
        -50.46651517  Gyration_radius:  2.5285493961 Dipole_moment: 2.403
 S          -1.15227390458386   -1.80844914081203    0.68011676799947
O          -1.79287288061546   -1.97638212213143   -0.59759490056030
O          -1.28402028322646   -0.42356394700889    1.15890007925429
O           0.22909667559538   -2.24989571769139    0.72577274580193
O          -1.91355473171573   -2.70917282751969    1.73536465666965
H          -1.20731619269379   -2.93196632333061    2.33362209037572
H           1.15092179344331   -1.51560370044552   -0.34209728023589
O           0.56165062659155    2.99920912525599   -0.50089007573624
H           1.01796290407995    3.37698191539351   -1.25392357587360
O           1.67889660109698   -1.04314682194141   -1.03958666558979
H           2.42688914532547   -1.61227398063477   -1.22937636866458
O           0.75131477481824    0.40841389274777    2.64070906117938
H           0.37859161003162    1.13769538440907    3.13942204066492
H           0.01322974140050    0.02847132882534    2.11951318628357
O          -0.56869696717324   -0.64044937631999   -2.53296796218349
H           0.34754993595274   -0.76722564977268   -2.22586462595759
H          -1.09013710875892   -1.29448378343650   -2.02254762787277
O           2.17365445869963    1.21419567138625    0.47757741829892
H           2.08663503974760    0.44212272367057   -0.10827483061678
H           1.22067149107746    2.37890367719585   -0.06886724968743
H           1.80352159776771    0.92424833344845    1.33584581139260
N          -1.38112816019750    1.23357697074344   -0.89013146214520
H          -1.07665326428924    0.58271933635969   -1.68245716086640
H          -1.41070687751470    0.62671449497253   -0.02700512599908
H          -0.66300509599382    1.99832326159946   -0.75279438418398
H          -2.30022092886581    1.62103727503707   -1.07246456174557
