    26
        -50.46651512  Gyration_radius:  2.52858421098 Dipole_moment: 2.400
 S          -1.48626670346865   -1.55218796511804   -0.66548779566823
O          -0.70768648416940   -1.91295738463540   -1.82082779602072
O          -1.67671598672612   -0.09525804257345   -0.59104783321747
O          -0.98493043492693   -2.08018548485977    0.58951825452269
O          -2.93216733806533   -2.17337042435943   -0.83199247517100
H          -3.17245043722028   -2.33144808211274    0.07561368325351
H           0.51108749373699   -1.63548224913578    0.89518543616974
O           1.30512028329822    2.79645982994244    0.19838249480717
H           2.24285014290008    2.98723842330024    0.24520573225082
O           1.45288788070840   -1.34656535845783    1.02940011013946
H           1.84277970902052   -1.99596932006137    1.61733526401801
O          -1.85748253756493    0.84953834995692    1.87977942559532
H          -2.30972272857978    1.68709686061645    1.76394380273902
H          -1.82204132559694    0.43335478713744    0.99303202869733
O           1.80091729042613   -1.06979982994926   -1.66264441611555
H           1.92810199931287   -1.20412792550573   -0.70576417171742
H           0.98662764796340   -1.57238971077659   -1.87369404182211
O           0.82983926471090    1.11599567306214    2.11985716656420
H           1.10557118057587    2.22268181265476    0.99631605930875
H          -0.14159044685927    1.02486953028310    2.19595276677201
H           1.13851418356860    0.25464688196831    1.78860361536277
N           0.39142437720586    1.14038731776683   -1.66326828025917
H           0.20770594903672    1.55352194673015   -2.57082464200082
H           1.08306964821935    0.32872192496568   -1.74596587374856
H           0.75775646600732    1.86103075265311   -0.98072198288473
H          -0.49319909351155    0.71419770650574   -1.27588654157170
