    26
        -50.47250310  Gyration_radius:  2.48728988089 Dipole_moment: 2.879
 S          -2.07917330388196    0.90533817901825    0.00557674568235
O          -1.78001771124191    1.20440445194202   -1.38959211971374
O          -0.93389041304996    1.13087702844737    0.86629604339288
O          -2.67263066945783   -0.40836864733541    0.16558938270231
O          -3.18352394235697    1.94618684684748    0.46034024606358
H          -3.93613296849217    1.64307097105094   -0.03576891129537
H          -1.62390649829542   -1.59006407828096   -0.04105334918421
O           1.59938109311980    1.97361246914168    0.46257997618947
H           0.68648732942086    1.87892479748773    0.79167018767285
O          -0.94436629785529   -2.31092003365296   -0.11060278837093
H          -1.42245646596309   -3.09973739143661   -0.37051796176759
O           2.43535230196729   -0.55771599344060    1.16176617910251
H           3.11695439204107   -0.84232888586507    1.77073896146903
H           1.55962290956642   -0.74125936612205    1.61118375992243
O           1.39888682842078   -1.45647227064807   -1.22695272904821
H           0.56632733873955   -1.84325033778838   -0.89560652515112
H           1.92130845727437   -1.25079666398329   -0.43081714997414
O           0.05932700061775   -1.00138071050822    2.13240624916622
H          -0.38581439137762   -0.18531748339354    1.82721035234053
H          -0.29492858907726   -1.69773130630349    1.56017317746158
H           2.06450256229678    1.18132872448614    0.78832067838541
N           0.77997854382102    1.03350147168005   -1.85099249675050
H           1.21576348285580    1.54271221622608   -1.02378765583675
H           1.03729232039539    0.00787643515398   -1.74818843131337
H          -0.27144288566566    1.12558866659771   -1.74053156428543
H           1.08709957617879    1.41192090067931   -2.73944025686444
