    26
        -50.46501477  Gyration_radius:  2.55432425009 Dipole_moment: 4.864
 S          -0.00331539922488    1.17939559057327   -1.95169662865623
O           0.26278716750049   -0.16522276312625   -2.44915279879792
O           0.67716589827253    1.45174656032962   -0.70367769776831
O          -1.43087478833022    1.44591671590766   -1.89129612455169
O           0.60584721168473    2.17659724392970   -3.01631797193454
H           0.16094276925776    1.91614084378487   -3.81616342139990
H          -2.15791262658866    0.59096280160130   -0.78241583894683
O          -2.54030073631034    0.00022761069053   -0.07461417196378
H          -3.49236354663219    0.06739928067300   -0.16282547711508
O           0.51115624193472   -0.27980179150198    3.14084259944839
H          -0.01181230448739   -0.37283844927427    3.93696383075558
O           2.77593071856334    0.01081348699673    0.06312875140812
H           3.18585166096349    0.57350735031695    0.72334803955736
H           2.04046579684199    0.53850366650442   -0.31268746218932
O           1.34195327105383   -1.92234187593053    1.20299802604483
H           1.06050670455219   -1.42860980328776    2.00218235954556
H           2.00666907869519   -1.33351102779192    0.77539984105467
O          -0.77396007654509    1.43496861297981    1.57195845484170
H          -1.54425935875369    0.98026408363854    1.20366032517058
H           0.07386928012980    0.42248310217619    2.60079656110533
H          -0.19565598721133    1.60057216334630    0.80532962975577
N          -0.52529414899025   -1.79426619828099   -0.57118806138476
H          -0.13445198902247   -1.20563342913242   -1.36507855264089
H           0.24208870516572   -1.87580555399143    0.20862441471134
H          -1.36097994200490   -1.29582783367449   -0.22285365995011
H          -0.77405359050859   -2.71564040741986   -0.91526493608363
