    26
        -50.46290507  Gyration_radius:  2.46790804407 Dipole_moment: 5.394
 S           1.41545484029882   -1.81603868781308    0.00364304655352
O           2.20934037906432   -1.47821281369918    1.14711378360564
O           1.53382207507106   -0.80512915464545   -1.06041463590088
O           0.00965347272923   -2.04862809722107    0.32555512441317
O           1.96192144644807   -3.16491191695696   -0.61126880822375
H           1.36406484427235   -3.37291143744583   -1.32504100960033
H          -0.13944781196870   -1.00650726069122    1.57019558478278
O          -0.04553332143426   -0.28384196756462    2.24081383166234
H           0.53308819129857   -0.65817048232817    2.91003178429000
O          -0.64233887836970    2.56386128176281   -0.57624458864302
H          -0.99793469914870    3.45082062850787   -0.63426111819492
O          -0.52793738332829    0.35717936452934   -2.43981647740374
H           0.25664886451971   -0.09577316903650   -2.08841301186368
H          -0.54941912090230    1.22513944220698   -2.01599405563326
O          -2.24459070002618   -0.95661981788243   -0.79924139874550
H          -1.55946728089443   -1.50980514495933   -0.39139992895061
H          -1.80304954953825   -0.53741915096868   -1.56513635495120
O          -2.17773365911916    1.07842301854035    0.86646940954311
H          -2.37235795247134    0.31808088498685    0.25525987640638
H          -1.66923299160210    0.69192650966553    1.58809247467446
H          -1.30779748252184    2.02659287779475   -0.03853938702649
N           1.36808543922987    1.23439339387494    0.53567731036260
H           1.56437230038111    0.46940329293190   -0.18143273554849
H           0.87325906658778    0.73492018615893    1.32303757180939
H           2.23614557292409    1.65159288602706    0.85376251509200
H           0.71098434849656    1.93163535421720    0.10755121751488
