    26
        -50.46290484  Gyration_radius:  2.46786144914 Dipole_moment: 5.391
 S           0.01408775800607    0.64373352987551    2.21032539711098
O           1.10739615340689    1.07125174144044    1.32158447568726
O           0.28549950518924   -0.62805340243041    2.81097657181961
O          -1.26109882471822    0.68585588645589    1.49893698322424
O          -0.07510611351664    1.73330762019953    3.35107954595748
H          -0.32463945075394    2.53950941150848    2.90620080020572
H          -1.32241212717217   -0.86562872928338    1.00119687491764
O          -1.14189422889880   -1.80367165624269    0.74024898835106
H          -1.21788617283429   -2.29511715538524    1.56210898566092
O           1.19598528525321   -0.61777018990151   -2.34653707465481
H           1.45412466269387   -0.93591224969188   -3.21179353026066
O          -1.79717016282945    1.48508746885343   -1.07259592979602
H          -0.92357318368609    1.88470641028517   -1.25809726368953
H          -1.78304660797042    1.28957796791960   -0.12215906642626
O           0.85676993554529    2.02847064751324   -1.23327960218981
H           1.02082778539279    1.82036406478483   -0.29843621262262
H           1.13878859339686    1.25240581735023   -1.73489048339666
O          -1.33821742703691   -0.93464127372583   -1.99702895392663
H          -1.63625477829730   -0.01456283674918   -1.76424707626579
H           0.19347533997188   -0.72968676706927   -2.29100459747206
H          -1.49235044722781   -1.45374869565793   -1.19983138023487
N           1.43508322262085   -1.25488803273564    0.21879219433947
H           2.15367350028354   -1.85837281414607    0.60378229371988
H           1.45884795772033   -0.29968445952112    0.69308645214434
H           1.52877546465399   -1.11474404373002   -0.81711626869540
H           0.47031437080213   -1.62778825991438    0.42869785648590
