    26
        -50.46290501  Gyration_radius:  2.46790884003 Dipole_moment: 5.393
 S           2.01500543503954   -0.72841503054154   -0.84287729516771
O           1.36399659100877   -1.48480715959675    0.23992018351549
O           2.86003440336513    0.30902715071220   -0.33149150879901
O           1.01584492858496   -0.24378675784623   -1.79197708492881
O           2.90871874822012   -1.76863552980459   -1.62737533037197
H           2.29274118875579   -2.39683249755562   -1.99623992967896
H           0.77340754286076    1.24133475023440   -1.16532682086751
O           0.71842044265297    2.05507088161622   -0.60352554016643
H           1.56495395459643    2.48944472695905   -0.73570068459612
O          -1.85395883797671    0.25366840227679    1.95378784473185
H          -2.56992930979702    0.49704587165754    2.54086598543246
O          -1.70302365536993   -0.62832103590745   -1.81680773210456
H          -1.73073384851562   -1.31739588976387   -1.12280482916839
H          -0.75929960365920   -0.50827936501487   -2.00829114798920
O          -1.29372827621606   -2.12518309101880    0.40954880584243
H          -1.58115006658983   -1.48677148537684    1.07530748457695
H          -0.32617899797785   -2.04867882258684    0.36183063591430
O          -2.08718420688530    1.48583123279834   -0.29872404242008
H          -2.02732588662204    0.73334257162857    1.08186778274430
H          -1.27933252414428    1.97769539605689   -0.48355694655840
H          -2.08470580188022    0.73586498489197   -0.95215725346802
N           0.76039796516858    0.60437063166084    1.65589042842478
H          -0.22964567151208    0.49921489688522    1.98730942238808
H           1.40032316961481    0.86837158315760    2.39721366709402
H           1.06742142315635   -0.31465885689560    1.20962580767665
H           0.78493086412184    1.30148242103855    0.86368810822839
