    26
        -50.46290504  Gyration_radius:  2.4678325574 Dipole_moment: 5.396
 S           1.98256114854911    1.16980874996259   -0.03527229653003
O           1.91576319744933   -0.16475033784895   -0.65381758328937
O           2.31151990850828    1.09365237218206    1.35681763692081
O           0.75095637786042    1.91041388774499   -0.29735457332828
O           3.13731698617785    1.94327325939737   -0.78655543487585
H           2.83930878375169    2.01864332864711   -1.68971173626142
H          -0.06267202140509    1.53641414379297    1.06464524565382
O          -1.46639722014086   -2.27313224011636    0.00577192215124
H          -2.12303770354278   -2.96451796497777    0.09141299628144
O          -0.40979760356341    1.14358225293977    1.90489049836063
H           0.11074252706621    1.56476541720002    2.59367686398835
O          -1.45177763336009    1.17478446866392   -1.76204157013798
H          -1.05953215970848    0.37860330288411   -2.17372108879564
H          -0.70860425879722    1.61705516336532   -1.32176652545185
O          -0.08851573182779   -1.11848135966925   -2.25926041302105
H           0.71572572352461   -0.81467728092963   -1.80629988968789
H          -0.54296633688918   -1.70187811793898   -1.63759499381461
O          -2.55699356832840    0.03876961604088    0.33753001929415
H          -2.10441496950744    0.51112480059720    1.04517846549979
H          -2.29789231649909    0.51707049432937   -0.49531770525454
H          -1.96251078028194   -1.39824738348897    0.10192235340737
N           0.61630589838500   -1.26455931325784    1.30518119161196
H          -0.15515491672147   -1.84835669285689    0.89813161256884
H           1.24891060796192   -0.93804302850909    0.51085933391776
H           0.20395757053102   -0.37442133990493    1.69477923687616
H           1.15719846079308   -1.75689620824369    2.00791645391674
