    26
        -50.47398747  Gyration_radius:  2.43798789027 Dipole_moment: 2.204
 S           0.99932593332704   -0.67615262171380   -1.49802083603403
O           1.31827242835823   -1.19483651877179   -0.16882551261613
O           0.67920134048501    0.73667005397867   -1.43793812896538
O           0.01962571113935   -1.48319387212191   -2.18727067750798
O           2.32923632270248   -0.79064330845119   -2.34790723208103
H           2.22248106783512   -1.66198353184557   -2.71177763887715
H          -1.50670258493151   -1.35672467071208   -1.60378010594941
O           1.45426178088099    2.78362183658969    0.06052649414152
H           1.29230133919736    2.13404640413172   -0.65423803030877
O          -2.37832824452422   -1.27501217111613   -1.14986852958008
H          -3.01240616345234   -1.73941871800772   -1.69812799063896
O          -1.07155720392738    0.42000125021909    2.30460503468931
H          -1.42931689153767    0.86628001137520    1.50331586205030
H          -1.14843931252445   -0.53952222199738    2.09034755999567
O          -0.96448173502660   -1.97069129285812    1.14241034139553
H          -0.10944682757955   -1.86774156221592    0.69220096206445
H          -1.63232547135539   -1.87295510135663    0.44577608574909
O          -1.66168062035346    1.23179821644876   -0.17371618080147
H          -2.20999343727645    0.49536773484928   -0.48057455994175
H           0.65139302885146    3.30816560079569    0.11401731885904
H          -0.83363550658227    1.13934687562959   -0.67820482297929
N           1.42624487218943    0.66887810049386    1.70803224652414
H           1.50161172829526   -0.09306990457522    0.98660816943038
H           2.11456134624632    0.54440416375572    2.44133019997024
H           1.54499159182415    1.58415132902235    1.21143982183027
H           0.40480550770838    0.60921394847241    2.08964011957217
