    26
        -50.46544348  Gyration_radius:  2.48668189937 Dipole_moment: 3.816
 S          -0.33797724600295   -2.10175488819289   -0.59648575787786
O          -0.17066406939434   -1.54631206665574    0.72452728935537
O           0.90899061455472   -2.26280469239472   -1.32221138977211
O          -1.32905440977359   -1.37054191349375   -1.38534698551723
O          -0.92689423418786   -3.56140587672590   -0.39977698237399
H          -0.86029313300197   -3.93342649803370   -1.27352194226321
H          -1.68340017019508    0.07638363273850   -0.77681182787835
O           0.46511534545908    2.19946641582023    2.55977379126119
H           0.05864413051572    2.93495099149689    3.01897938793013
O          -1.76602571143472    1.03293888725112   -0.52646337132844
H          -2.10705165737291    1.46573063136028   -1.31198121714371
O           0.52275354892283    0.32311473346085   -2.44846001799802
H           1.28700944669009   -0.22606553098259   -2.63580832479448
H          -0.17728861114713   -0.31105912170396   -2.22433474898775
O           2.30861354048224   -0.60375200947228    0.13561112741436
H           2.05056253674366   -0.92742256807073    1.00427136622202
H           1.89936916342440   -1.25084145496270   -0.48509823275267
O          -1.37899437325671    0.35640309311060    2.18334688975197
H          -0.20280790582469    1.46339667338363    2.56827043863297
H          -1.87000041521812    0.71749342341052    1.43528812257117
H          -0.94290924112330   -0.43594053458331    1.81582370674690
N           0.85545197815211    1.61332248826056   -0.01529586840272
H           1.44254939765532    0.72250976611947   -0.00685003264764
H          -0.12504694204650    1.36358945906679   -0.28897888936623
H           0.83710611661115    2.00918919222053    0.95320959257424
H           1.24224231074572    2.25283778756681   -0.70167611335437
