    26
        -50.46544354  Gyration_radius:  2.486904215 Dipole_moment: 3.823
 S           2.11778496011555    0.01670060822476   -0.63752298486003
O           1.86153207889871    0.35725059740868   -2.02530712170056
O           1.32345353324924   -1.08748631370938   -0.15647925041512
O           2.02187281268684    1.18998261435172    0.23056629516108
O           3.63112609226416   -0.45372703654628   -0.57011884097806
H           4.08486070872465    0.23337369591084   -1.04787187993400
H           0.77752452457266    1.13016439027502    1.24842673505405
O          -2.60297979736281   -1.83904171609161    1.20540132127922
H          -3.16493760407044   -1.95444317041808    1.97214549623293
O          -0.08266089772798    1.19643859320322    1.73866740143026
H          -0.18642076140606    2.13066454510529    1.93126098896743
O          -0.45979679319057   -0.83515383294206   -2.19042657722891
H          -0.21381981397049   -1.67542780497972   -1.79114923496006
H           0.39656979315920   -0.35287868039917   -2.26373533819872
O          -0.07860044722311    2.24696013086114   -1.14742644117543
H           0.74136850764158    2.01396195743109   -0.68281866287795
H           0.12039252068148    2.08542049350937   -2.07213282816301
O          -0.11817376732757   -1.60626825432332    2.04823558000811
H          -0.10049178832256   -0.69374845028143    2.36130570541090
H          -1.66742096958498   -1.90934300750994    1.53386069215233
H           0.46768026174477   -1.59686008909816    1.26733256372241
N          -1.79400297753690    0.28883420512004   -0.18864838341579
H          -1.25057880070499   -0.11505093785495   -1.01304578247495
H          -1.11032993003781    0.69558842235259    0.49403070417173
H          -2.40513744022640    1.02393586295713   -0.52898132589573
H          -2.30881402504776   -0.48984681254998    0.28443116868941
