    26
        -50.46086454  Gyration_radius:  2.50624616114 Dipole_moment: 4.208
 S          -0.15196291197221    0.33959743765127    2.03629877031183
O          -1.26852685725766    0.77277808477379    1.19397539960249
O           1.03291956596320    1.13225729349520    1.88899761080890
O           0.08267752467525   -1.09266348608769    1.83849270093939
O          -0.65377673637029    0.50241972464432    3.52549315295197
H          -1.48224457085361    0.03717320940816    3.49438538675628
H          -0.27597230659788   -2.33124403212730    0.62176659243134
O          -0.27463863623811   -2.72536692353672   -0.27234376179372
H           0.66024503776515   -2.77709143647732   -0.50099399873321
O           0.24250473619194    1.23118781747916   -2.37952379187963
H           0.68272883164541    1.23450602800503   -3.22992538643290
O          -2.21758304118084    2.24584185759692   -1.06753937273010
H          -1.98711721532815    2.05284908024790   -0.15105629250773
H          -1.38217200665921    2.34202943972739   -1.53606399846845
O           2.27086475854606   -1.51772920999157    0.40368186467474
H           1.52571129734746   -1.32002415173920    1.01448093899039
H           3.05626057139275   -1.54806359742506    0.95212129845917
O           2.07926251267358    1.03417116653676   -0.55912267094914
H           1.74487758532763    1.29920522543004    0.31962199283473
H           2.29511828800786    0.09136188854344   -0.44318588903644
H           0.96664614834956    1.23744903124120   -1.68964175232168
N          -1.39857661095690   -0.46808081136282   -1.11301033087999
H          -0.79051548461608    0.11090235574749   -1.73995813382809
H          -2.34896792702484   -0.46677262506993   -1.47124841850082
H          -1.01459441384162   -1.43717739064144   -0.96764812486668
H          -1.39316811905760    0.02048400410870   -0.16805377585720
