    26
        -50.46787426  Gyration_radius:  2.44357355702 Dipole_moment: 3.546
 S          -0.48306229256230    1.18008656675034   -0.52481512805888
O          -0.32893623325488    0.39743433709020   -1.74870439840969
O           0.80129160859350    1.47579752178524    0.07336828190439
O          -1.36127287505429    0.50037114367907    0.43120810554160
O          -1.18208675873550    2.50811309908012   -0.94404812795271
H          -1.44420212357975    2.90930880374697   -0.09132373719140
H          -0.92706650935336   -1.10546601340266    0.62303594467398
O           3.16969489767262    0.14889444854804    0.41176737637169
H           2.66316656273095    0.94583645109536    0.18647311657232
O          -0.57429673624389   -2.02010860491201    0.54407865666637
H          -1.08764793322362   -2.38702370789616   -0.19553378025812
O          -1.65075973078663   -1.94336313802196   -1.95142980837128
H          -2.55011566037242   -1.82556227241367   -2.25919255304427
H          -1.24083211251853   -1.05544619539280   -1.96816689251760
O          -1.95630563825197    2.79550191785049    1.56149509538688
H          -2.88450554605716    2.88781218206395    1.78794979021535
H          -1.79421596906613    1.84205543571509    1.41950043242681
O           1.19037218519698   -0.18129879865824    2.22676084777781
H           0.53346304563752   -0.88121298091708    2.21083350057362
H           2.84908327245404   -0.06828875936055    1.30588873030658
H           0.87808251350982    0.50545563661148    1.61267630177122
N           1.50026655745495   -1.34784829636388   -0.95595719823373
H           1.85417732374241   -2.04634285395780   -1.60127659525955
H           0.92423178662516   -0.62746734147030   -1.45593219407357
H           0.81695489294128   -1.77267599428156   -0.26200773386480
H           2.28452149255719   -0.83456255702917   -0.43664802292375
