    26
        -50.46787428  Gyration_radius:  2.44354148287 Dipole_moment: 3.547
 S           0.05095188386195   -0.04757063272800    1.37729787428082
O          -1.34262211746710    0.08238248610063    1.00858196873035
O           0.78053857777628    1.19459997372369    1.13451455108411
O           0.67460392435236   -1.17343814765546    0.67673128500469
O           0.16278835307718   -0.32474604004255    2.90663593468076
H          -0.15675214726784   -1.24472104728001    2.99735919497238
H           0.99154924423876   -0.79594229684163   -0.92359057169106
O           1.16424288138568   -0.36958096567061   -1.79285457159756
H           2.03686292134691    0.03914526692135   -1.66408530789812
O          -2.74353503146069    1.31271404996080   -0.99328303597783
H          -2.61777982766850    1.07808234987202   -0.05969839746641
O           2.98485870790348    1.10686639308987   -0.41510693676942
H           2.25881195233816    1.16891037870668    0.23732258231312
H           3.76661533611371    0.86230552652704    0.08132656662144
O          -0.36382594412149   -2.86025666961762    2.40162524905321
H           0.23700383442363   -3.55782000781976    2.67321893237703
H           0.00324847168512   -2.47528755858746    1.58156777737272
O          -1.75455247041217   -1.17316329714196   -1.39741534568753
H          -2.74970586263511    0.44558017331759   -1.43762979124277
H          -0.90613950619611   -1.37451950517410   -1.79914139301944
H          -1.57616789868180   -0.96289524116543   -0.46456164521661
N          -0.18375295313335    1.84215581843660   -1.24692359032598
H           0.27319554695305    0.98738070639584   -1.68208027043767
H           0.14236621801117    1.81259396858947   -0.25016414628180
H           0.11677733465974    2.69589304995953   -1.70562938866190
H          -1.24958143910127    1.73133126814569   -1.24401753421930
