    26
        -50.46798883  Gyration_radius:  2.52110996621 Dipole_moment: 2.299
 S           2.05594100264826    0.22363421288911   -0.57956516853211
O           2.50861081349154    0.95017544565395    0.58067001892604
O           1.03588722319636    0.92868661611113   -1.33780444929456
O           1.64105013921023   -1.14626149515325   -0.28939896209893
O           3.31777807500645    0.08035167032250   -1.53110097439948
H           3.75729954907146    0.90449930115250   -1.35411986937165
H           0.62989569719967   -1.36528190171525    0.95279329821004
O          -0.04331588172613   -1.45925558255151    1.67241852667848
H           0.30385219422955   -2.11641878689412    2.27761529064429
O          -1.72530316374088    2.51181171324784    1.23864877126704
H          -2.38652602309332    2.38371081601672    1.92055726320799
O          -2.03155484267867   -1.54495675413290   -0.22683814176023
H          -1.48072880886046   -1.60896524383209    0.57302292136163
H          -1.48295160503688   -1.92183861299599   -0.94282656362233
O          -0.11461327613751   -2.06696059048133   -2.04166765681948
H           0.58128939946497   -1.68000719648864   -1.46758739005479
H           0.28662618724865   -2.82217267795708   -2.47311566279343
O           0.37375770790796    1.24490733192100    2.16235513351234
H           1.20255341127006    1.27914233567275    1.64575918841282
H          -0.87533018854342    2.16271957297255    1.61811198973190
H           0.11967531918127    0.30832195457679    2.16473579756344
N          -1.55281929566785    0.95757674807386   -0.92181137626702
H          -1.84893888942935   -0.02892263665665   -0.64939002131906
H          -2.04247030802828    1.26360388126566   -1.75519294034595
H          -1.71806142958617    1.61992081526051   -0.12134446157897
H          -0.51160301656542    0.94197908373528   -1.11492456127406
