    26
        -50.46798878  Gyration_radius:  2.52115188001 Dipole_moment: 2.302
 S          -0.18480991850215    1.30733268491445   -1.69467526494824
O           1.04718572230739    0.95062449035007   -2.35328133475175
O           0.01479115924864    1.89117148370190   -0.37862902961136
O          -1.15953836793602    0.22091152706219   -1.64453502584668
O          -0.85948454954236    2.42641558448028   -2.59513219083450
H          -0.08475725719023    2.87724687887542   -2.91213609625161
H          -0.63402877182959   -1.21930414322579   -1.13149802721098
O           2.82350522723820   -0.27522246076826    1.66620632479212
H           3.10679022682481   -1.10900661614646    2.04452670285971
O          -0.29973892292925   -2.06803245699424   -0.74703428748612
H          -0.52451332045885   -2.75335822904770   -1.37829724796461
O          -2.84495259298557    0.46221345045568    0.38076264348004
H          -2.22450150834479    0.47159145004740   -0.37990751603800
H          -3.72331628254910    0.54428423659141    0.00772586374985
O          -1.36225186395333   -1.36162337383404    1.68997361384170
H          -0.99071665851345   -1.81499021361616    0.91300433972230
H          -2.08423611227709   -0.80506008781393    1.33675000240673
O           2.21694148143691   -0.88962511398082   -0.80722875248419
H           1.44250576815327   -1.47035747651092   -0.73819196766597
H           1.94052543415767   -0.17306287591035   -1.41137405979498
H           2.71806658852598   -0.44292622174212    0.69197643071468
N           0.33428191262845    0.65030425785606    1.90918966115814
H          -0.33250085498504   -0.18053879113488    1.92354957465238
H           0.18830168362792    1.16736598949226    0.99657090172553
H           0.14486814959699    1.27790093122982    2.68259558876693
H           1.33158364823917    0.31574512568833    1.92908914300419
