    26
        -50.45271693  Gyration_radius:  2.43524251529 Dipole_moment: 9.053
 S          -2.22351121161834   -0.43670308184169    0.56885673708658
O          -2.71184414246961    0.71527336943116    1.26304033211186
O          -1.47115733016371   -1.37690919220825    1.39932416892223
O          -1.44643308346865   -0.08855625659374   -0.62164261018988
O          -3.48653977764088   -1.24752152982928    0.03532679865650
H          -3.11240282550502   -1.98811561020645   -0.43502829018976
H          -1.07554307850451    1.37022463462024   -0.21228889621307
O          -0.67585933041079    2.24099907804089    0.06789844336359
H          -1.42897437016509    2.77099476241407    0.33545721034484
O           2.30222140184553   -0.10523092391368    0.96115697720423
H           3.03851627961934    0.00146925807066    1.56432053493746
O           0.73379912755407   -0.94299936201635   -2.49236855460748
H           0.39993001173358   -1.38149000297957   -1.66590183651123
H           1.41138940809738   -1.52872383257073   -2.83625382440629
O           0.53343989055771   -2.14806374914831   -0.15722002917112
H          -0.25166458302037   -1.94044310562709    0.39278662132987
H           1.26697498046602   -1.70487832894442    0.28662355341829
O           0.14797664148343    0.56135898368711    2.19791500875572
H          -0.48253641717396   -0.18133414237651    2.09188327947931
H           1.47411167655448    0.12091650801414    1.49431865537725
H          -0.24905885482380    1.29832102072833    1.70853374693892
N           1.47701255889034    1.22146646499529   -1.20249324770588
H           2.11732229875909    1.81718699123104   -1.71574238825073
H           1.10942653884247    0.42063075619225   -1.81057832556052
H           1.93642252000194    0.76808456189296   -0.37199167614777
H           0.66698164056244    1.76404271893991   -0.84593237897714
