    26
        -50.46086443  Gyration_radius:  2.50594899688 Dipole_moment: 4.226
 S          -1.77606183554262   -0.96197697346299    0.44557070694030
O          -2.32951473933054    0.35454449173905    0.56526659915269
O          -0.64002999122838   -1.21465505094324    1.33404570965660
O          -1.40922820807096   -1.31142306533582   -0.92881109571909
O          -2.89298549197102   -1.99195552304544    0.87858293773309
H          -2.40528514409593   -2.80785832707210    0.86582971622963
H           0.07002040682070   -1.53070348845493   -1.87842224878507
O           0.93251572689996   -1.26807404913911   -2.25527700493003
H           0.73137844218125   -0.47369276536704   -2.76257540758706
O           1.70670987103055    1.88263762026333    0.86980729039308
H           2.25692409096994    2.62776653970221    0.62694958697939
O           1.43149203116451   -0.16273043000973    3.00322258207348
H           0.57399988226360   -0.52674718464845    2.75312377850167
H           1.44670803244958    0.73777400772845    2.66352164598833
O          -1.03762632170285    0.85251019423265   -2.41467699665869
H          -1.28139009590519    0.07938716101059   -1.85754497566513
H          -1.85669495686609    1.16052304997898   -2.80570646842907
O          -0.64864479296399    2.30178658291891   -0.12953979914236
H          -0.64916348149216    1.99195116732057   -1.05319468852813
H          -1.31949447865618    1.73585872148721    0.29915538003099
H           0.78485742176966    2.09828456050804    0.54627208087476
N           1.68900693354715   -0.72021820439210    0.23346889531029
H           2.42352898683898   -1.25959631152549    0.68179422090349
H           0.76109696541415   -0.96728585748747    0.69104820954561
H           1.84149373840867    0.29941034095999    0.42259712568811
H           1.59638697808378   -0.92551723696692   -0.79450779054608
