    26
        -50.45271702  Gyration_radius:  2.43541658775 Dipole_moment: 9.052
 S          -2.25396208118665   -0.20904977653383    0.58197589610508
O          -2.67056749413469    1.05663320017830    1.10335604044513
O          -1.57306125260169   -1.07301598955555    1.54622187996010
O          -1.44486962488806   -0.07883972193518   -0.63082994880220
O          -3.56329289683304   -1.00233091478192    0.14201411767851
H          -3.23512357938742   -1.82516270891916   -0.21136056694863
H          -0.97902160129527    1.39400643236570   -0.41667612238333
O          -0.52396871090615    2.26691833585027   -0.25051498150462
H          -1.24207026816206    2.87789252895230   -0.07526957292406
O           2.28012863417314   -0.12307152163192    1.00916800675178
H           3.01586850809597    0.01394004209520    1.60683300938027
O           0.69239247445592   -1.31976922553670   -2.32751462310060
H           0.32203537201055   -1.61841431382176   -1.45534922665382
H           1.33203705225511   -1.99024801065525   -2.57619120803538
O           0.38982957859076   -2.17826806301981    0.14542325166815
H          -0.38471929031535   -1.84672398135319    0.64754807651473
H           1.14711014938752   -1.72664803553774    0.53803470360172
O           0.16451213741068    0.84679662590245    2.10383419189395
H          -0.17739833485248    1.53386927391630    1.51113535563990
H          -0.51332206456355    0.13918051894467    2.08804044635106
H           1.46435612180100    0.22828946243898    1.49113792171002
N           1.56791155983612    0.94688838375013   -1.33009737531753
H           1.15345913110799    0.09593949985565   -1.83068401945535
H           2.25158197904746    1.42423008150107   -1.90718911023867
H           0.79234535655011    1.58445154857980   -1.06565798776227
H           1.98780914440607    0.58250633896429   -0.43738815457550
