    26
        -50.46147004  Gyration_radius:  2.59039113377 Dipole_moment: 4.221
 S          -0.52919111237441   -0.41716006749374    0.33172359670625
O          -1.17572685814274    0.83735435393961   -0.36278053821947
O          -0.82315612140051   -0.21302925574363    1.76073583983013
O          -1.12632264155156   -1.61186665863720   -0.21400666857749
O           0.90527813115195   -0.31607618036316    0.10073762166188
O          -0.22394056251083   -0.83971221477662   -3.88614516588917
H          -0.29685644881647   -1.43100346983096   -4.63677202742685
O           1.37737519805108   -0.31884815173151    3.32282779673636
H           1.77182629817986   -1.19137754385721    3.28374094117698
H           0.53232480012619   -0.38364090912180    2.83459356481092
O           2.12645199215728    1.52510839598299    1.51694661126826
H           0.78464023125686    2.15905159407854    1.67826848746353
H           2.16416204298242    0.97665216080021    2.32723407698068
H           1.85420424195524    0.87278307183363    0.82915951437615
O          -2.31247827787887   -0.37040567905590   -2.28367231912483
H          -1.66587462018626    0.48735440913653   -1.17698963883022
H          -1.61953691721677   -0.45098667844947   -2.98024749118197
H          -2.21142438357439   -1.15432582210064   -1.72230842202114
O           0.91790051278608   -2.15068382691408   -1.86639616087056
H           1.35347864618303   -1.47680850028434   -1.32357894776293
H           0.11127741140026   -2.32917329244709   -1.35561965566578
H           0.30366396960462   -1.32285631137789   -3.20510413583907
N          -0.30482045480822    2.30160644270421    1.75642433674423
H          -0.68225046261559    2.62000184156370    0.86516344891370
H          -0.57569054150380    2.90724188241413    2.52448474869739
H          -0.65531407325521    1.29080041972739    1.88158058603274
