    26
        -50.46332805  Gyration_radius:  2.58148061801 Dipole_moment: 7.581
 S          -1.03779345729530   -1.63802393590088    0.49936330279322
O          -1.54822475808351   -0.89895455018123   -0.66964798362983
O          -1.15479911575216   -0.88190876269703    1.71472628779940
O           0.33528871911196   -2.07921774069232    0.22908190339045
O          -1.91686052897403   -2.92304966479527    0.63647587510314
H          -1.76500547808730   -3.36864991114307   -0.21824899577601
H           1.44738139079235   -0.99644439303407    0.40261969348177
O          -0.68611742735212    2.96961313096876    1.13574499981891
H          -0.22262763349417    3.78512004482983    1.32877757623337
O           2.17076671374463   -0.31112477247990    0.49603699414924
H           2.96435716048780   -0.81029678691190    0.69778526162904
O          -0.93360946003844   -3.29594187428365   -1.80189463411302
H          -1.32491088891331   -2.42526353224340   -1.95262900549619
H          -0.12562554763252   -3.10747839612551   -1.30020091818522
O           1.84534490729264    1.31793468163287   -1.58800987974391
H           2.02531689981834    0.65630909875630   -0.88133891756629
H           2.42751712554859    2.05961072826786   -1.41450330731994
O           0.56627115114848    1.03331628309935    2.35514763818379
H          -0.25655236176050    2.26451999831300    1.69719304212197
H          -0.12130858376987    0.33739559834551    2.31386514507703
H           1.28176710685718    0.68743450379750    1.80005338608602
N          -0.80009596657619    1.53975429510708   -1.10707190189022
H           0.19952114734325    1.47838245958179   -1.41228921836774
H          -1.38373078387251    1.92253861762543   -1.84323782890232
H          -1.13735378729540    0.54538201397669   -0.87427445114400
H          -0.84891655325379    2.13904287618589   -0.24352405371870
