    26
        -50.46398718  Gyration_radius:  2.49810609447 Dipole_moment: 3.877
 S           0.40446451246149   -1.09141998479091   -1.92304494322693
O          -0.75383686919327   -1.29116311534134   -1.04798341398006
O           1.64569479157434   -1.07525290853697   -1.17297264785303
O           0.21960698808808    0.04555317665911   -2.79755812377962
O           0.47263310782238   -2.37077095952759   -2.86253875252195
H          -0.13977816991711   -2.15519936205035   -3.55903366337785
H           1.24910058243933    1.31976957213396   -2.15136682445979
O           0.50314144773328    0.26996243978816    2.51167352452710
H           1.10911724901326    0.18232820398164    3.24789517850077
O           1.85510464251197    1.53753295508686   -1.41440126655962
H           2.16905589406779    0.64534711434497   -1.17763592736736
O          -2.21786704303368   -0.33257418273450    2.10553999124680
H          -2.12473420903645   -1.25515520794108    1.85578088172285
H          -1.35321125746901   -0.06055157869615    2.44930302721274
O          -2.04262364075915    0.88763016514905   -0.30597101249709
H          -1.65183617946134    0.11090173666549   -0.76292624312864
H          -2.36584830113039    0.52730188805376    0.54587532445802
O           0.57512228521669   -1.90532480380903    1.10520319055857
H           0.57437376614991   -0.58417180013911    1.98522219521881
H          -0.10228076303575   -1.77998774944471    0.40304902891568
H           1.38522576576778   -1.86556606223424    0.57584544799005
N           0.12602092030233    2.07196311119390    0.49097295162831
H           0.03058198320043    3.05401517445659    0.72412274807389
H          -0.80971741307223    1.67206151278698    0.11236911623520
H           0.86916684234664    1.92948817808629   -0.26636037540524
H           0.37332306750457    1.51328246685159    1.32894058792171
