    26
        -50.46322781  Gyration_radius:  2.57427132973 Dipole_moment: 5.245
 S           0.10021956575563    1.39572296453162    1.84440484995302
O           0.27947923471307    1.53927576864334    0.39183372417082
O           1.08061055901299    0.53048158398666    2.43581938503331
O          -1.28333788507663    1.03725445865695    2.13241225393440
O           0.29582768583601    2.84274709308781    2.45518914738260
H          -0.56382770102708    3.21988524521575    2.30239486964545
H          -1.82932866864667   -0.35386838361468    1.59052149802669
O           1.44833690406878   -1.83935640440824   -0.87878384133072
H           1.75811749440019   -2.70089921893684   -1.15934708009786
O          -2.09525502819373   -1.23089964284922    1.20133122512255
H          -2.79618488196640   -1.56275930070462    1.76402574119618
O           1.85196788988900    0.87610362456700   -1.76936424594879
H           2.02898435692774   -0.04006955551577   -1.51876721434745
H           1.48368990297842    1.29077892432429   -0.97188107807570
O          -0.32045215819587    0.87119542393122   -3.34338733019396
H          -0.50260171806675    1.76422484099649   -3.63702849366017
H           0.56956438390840    0.90264202783205   -2.91547256403092
O           0.60632202389388   -1.92789069721970    1.57721620860030
H          -0.36077106258855   -1.87761242103243    1.51828173045351
H           1.26671587336950   -1.90924564374710    0.10161382371179
H           0.88543356763309   -1.08611546685105    1.99541005028937
N          -0.81430205827560   -0.36315516037402   -1.03544265303342
H          -1.61499330804300   -0.78266900382277   -0.55311689105645
H          -0.43862495282896    0.42933067424885   -0.43276216105599
H          -0.03730848329153   -1.05286561393168   -1.11563550366027
H          -0.99828153615089    0.02776387292694   -1.97946545099158
