    26
        -50.46398722  Gyration_radius:  2.49795549522 Dipole_moment: 3.877
 S          -0.27284917239599   -1.88926164929060   -1.18676794531290
O          -1.09597608533920   -2.01000561970595    0.00115471619436
O           1.00570631489353   -1.23533827055029   -0.89481249675020
O          -0.93785803000804   -1.27542901447432   -2.31492146591433
O           0.08248220682374   -3.37250786827119   -1.63107228806613
H           0.28664156926961   -3.27369684386703   -2.55586742742637
H          -2.26438128124806   -0.33782243467731   -1.63746714641332
O           0.11167834461071    1.14135637222867    2.30763283502493
H          -0.14465401376205    1.16749046585381    3.22989582515910
O          -2.67771734042138   -0.06215508457551   -0.79417528782360
H          -2.41154117234525   -0.80337305229265   -0.21942995920155
O           2.53541469167515    1.48272252187614    0.91260961480808
H           2.86548979568446    0.58338775369987    0.97933453562878
H           1.78149283492915    1.53590288943991    1.51959354314298
O           1.12742083799199    1.35173459401475   -1.39708359383924
H           1.08900300547824    0.37042492410036   -1.41391406365411
H           1.80122097690427    1.55358817786700   -0.71497048683863
O           0.80451777723919   -1.28090857448024    1.70034551621978
H           0.35571452495556    0.18580684432464    2.11024455541320
H          -0.01521258627541   -1.78609598783371    1.59759619810288
H           1.10502750414537   -1.23670619422547    0.76454687859129
N          -1.04184473742021    1.86025614887370   -0.06397141803319
H          -0.17241140324297    1.71613398308682   -0.69810387919895
H          -1.40890265169111    2.80009559550155   -0.16323382333238
H          -1.77385015840468    1.13216458238684   -0.34756836243610
H          -0.73461176176103    1.68223574092352    0.91040541598049
