    26
        -50.45708429  Gyration_radius:  2.51482495332 Dipole_moment: 8.095
 S          -1.36427286304616   -0.73565426757937    1.63848355467437
O          -0.12812357334694   -1.21358745155575    1.07798933281852
O          -2.38702959634094   -0.50588423902969    0.61181088143072
O          -1.19748430211686    0.44186458283819    2.47767190176985
O          -1.93150223026906   -1.87928661857822    2.57013741091278
H          -2.71372888967223   -1.47670022392162    2.93340398249349
H          -0.30789689968672    1.45213950749718    1.67363386972719
O           0.14362776499333    2.11123997918486    1.07314268317464
H           0.31289214095668    2.88655305847439    1.61140486495421
O           0.54253065046154    0.25671772224542   -2.48932692245782
H           0.91271111861671    0.51698850625934   -3.33312738217134
O           2.52457133199460   -1.45481098301588    0.42744826789247
H           1.74196399992076   -1.40319357797956    0.99573773024583
H           2.22394648153998   -2.01039713527541   -0.31092002556228
O           0.57738179664652   -2.37019472005696   -1.33964532294042
H           0.15854478013825   -2.12423200664113   -0.50042112968898
H           0.49630916349204   -1.59058646502476   -1.90327201368887
O           2.12702820666751    0.95458590641346   -0.59164055478976
H           1.56215245485409    1.35744949189635    0.08361778921788
H           2.42284259099207    0.09125900739493   -0.20385775782029
H           1.22794954588843    0.50850178199606   -1.78662232963589
N          -1.39959487502497    1.25453023065954   -0.96562028358275
H          -2.10438021527953    1.83308252429572   -1.41006364809316
H          -0.82714130551193    1.79888849949785   -0.28742670042220
H          -1.86456262014618    0.47018906995066   -0.37850346772318
H          -0.74873465672087    0.83053783005419   -1.67403472073522
