    26
        -50.45846875  Gyration_radius:  2.52043246255 Dipole_moment: 6.108
 S          -1.53260648194784    0.50757183684178   -0.75068642938221
O          -2.09038046433503   -0.32067658824092    0.28188092289181
O          -0.35960420494834   -0.14808594444162   -1.39027243226403
O          -1.13476112709725    1.82726718378808   -0.28517235520078
O          -2.60136280352650    0.68050821953846   -1.86986552159474
H          -2.09915548306711    1.10348177975595   -2.59189690793025
H          -0.15833379088724    1.98898422924809    0.91285545458447
O           0.54486109828216    2.00500903539518    1.62776790816885
H           0.67905286270479    2.93018083814670    1.83855545804426
O           1.03414080774226   -1.97964897868240    1.94897385340607
H           1.47050299283374   -2.31283342394675    2.73369326389429
O           1.00263775956941   -2.57415109005543   -0.93684285041197
H           0.34840946861266   -1.93491853177787   -1.24553473518412
H           0.74792896200667   -2.80148783356521   -0.03747466076260
O          -0.66050185655580    1.24672131034764   -3.59297510524471
H          -0.30469670365063    0.71257278909874   -2.85481681714242
H          -0.67118689404825    0.67562659050751   -4.36441224834634
O          -0.82797934442838   -0.29126789772269    2.61133653705243
H          -0.42149946462090    0.58344295344937    2.54805466218575
H          -1.43127105358054   -0.35055194778324    1.83998141312427
H           0.25421393313658   -1.43880536384265    2.26418645416947
N           1.67289122363903   -0.01232784402857    0.26363951483692
H           0.89145954434160   -0.07458413945287   -0.45964097528377
H           2.57444865005014    0.00012010316824   -0.20165635164464
H           1.49278248320261    0.84188477786082    0.83198326180908
H           1.58000989657285   -0.86403205361638    0.87833866623815
