    26
        -50.44140275  Gyration_radius:  2.51774190364 Dipole_moment: 3.852
 S           0.11748720180599   -0.81557143282154    2.08891997772423
O          -1.09945323792024   -0.42533610574863    1.45041408091673
O           0.76378595353733    0.07777972873670    2.99029549197852
O           1.10167897141872   -1.38818735656641    1.06586575944180
O          -0.26316615596717   -2.10997908364029    2.93705403851509
H           0.37345033755979   -2.21474550976976    3.64214001909108
H           0.51277362053090   -1.82162402357113    0.33138196222115
O          -1.06110187503547    3.11600253571673    0.24932190175506
H          -1.56730041340418    3.24652695902598    1.05275051870306
O          -0.44173157944793   -0.54383945424425   -2.50850340869722
H          -0.42772678321788   -0.74725138893959   -3.44420642599900
O          -0.60642853630740   -2.29419362719533   -0.53637544304967
H          -1.32548239652901   -1.94862451951191    0.00657736640572
H          -0.58128900756712   -1.71670825000426   -1.34161407084922
O           1.02093915290500    1.42892117473567    0.66178370097037
H           1.11825633112310    1.32117677399583    1.61024777000213
H           0.34129405208781    2.12120109562204    0.51234062524752
O          -2.13903079489859    0.88289478622748   -0.76278243403792
H          -1.59949216121063    0.49779910950792   -1.46891255671368
H          -1.86919199929585    0.43364992762627    0.05182159944227
H          -1.53514288468826    2.41618202270659   -0.25382826033785
N           1.95008389775183    0.10686005140762   -1.67748596398639
H           1.67652091004481    0.59634141521866   -0.82311098823039
H           0.48986512464858   -0.23949113083241   -2.25212268533116
H           2.56506155569191    0.72214842525617   -2.19532829901190
H           2.48534071642257   -0.70193213304373   -1.38664426625898
