    26
        -50.47250238  Gyration_radius:  2.4874257612 Dipole_moment: 2.900
 S          -1.72128925841874   -0.70197607829255    1.29961777026376
O          -2.53655400207602    0.05373189092178    0.35621868036354
O          -0.49110708744588   -0.00903662337059    1.63119766386987
O          -1.51436004967486   -2.07020198491307    0.86545065082477
O          -2.55532921877801   -0.78527879171907    2.64380868954008
H          -3.27524461127780   -1.34696658621860    2.37799954723344
H          -0.49851721898119   -2.18906901399323   -0.35598304019231
O           0.60961539000306    2.34277104941683    0.89305386809417
H           0.25165314429451    1.59957859535185    1.41299324585628
O           0.18353205862116   -2.24970078598601   -1.07535544450475
H           0.00016226769819   -3.06509027242846   -1.54424543151669
O           0.69173035619908    0.16312190928041   -2.25289082081209
H           0.50057075494455   -0.73805877305426   -1.93056702096620
H           1.47311424898594    0.45517985162498   -1.74959320396914
O           2.57711311849601    0.89585558160874   -0.38354560509148
H           2.35580699102579    0.08412789064393    0.15930953323036
H           3.53008720486450    0.98465650272138   -0.36199490920447
O           1.79537735673344   -1.20645724949050    0.94053938832599
H           0.99322716995873   -0.83460308170673    1.35935744337826
H           1.45614310018785   -1.79663204500652    0.25164496169862
H           1.42946855715940    1.99603812083305    0.49576187530486
N          -1.06734389599375    1.70424239846867   -1.02708312244301
H          -0.44077229790863    1.10811886180266   -1.64422549101384
H          -1.57874483119193    2.39461433333605   -1.56441214079166
H          -1.72987715258045    1.06099476126975   -0.50430814904405
H          -0.43846208489811    2.15003954885832   -0.29274891842129
