    26
        -50.45708425  Gyration_radius:  2.51488504625 Dipole_moment: 8.094
 S          -2.25157367116856    0.10832998863949   -0.07220379013884
O          -1.99268590788324    0.35642208361944   -1.49499403805664
O          -1.24880519272539    0.69848491578324    0.77445383713290
O          -2.45317844672934   -1.31116699851702    0.17905102156984
O          -3.62215177001392    0.82501426751956    0.25276382306932
H          -4.23468343382149    0.35504231198876   -0.30388071625613
H          -1.03210023284124   -1.97297178211738    0.21718471912790
O           2.28714529082211    0.71134546564304   -0.90527774925846
H           3.22042250210887    0.78277428713959   -1.10694238999153
O          -0.12159880246698   -2.36758087210822    0.09849086773494
H          -0.20893873493612   -3.30024403530284    0.30342921168095
O           0.66673279920774    2.66997573121785    0.42198798583690
H           1.27672314139105    2.18026513662789   -0.14381383112242
H          -0.14403874293039    2.13861991153407    0.44469493132240
O           0.70682333590113    1.02564356063899    2.66829738512632
H           0.93548550187310    1.84263634635551    2.19451493019980
H          -0.16329328356802    0.79952923434838    2.30794334687049
O           1.95660815813821   -0.76351642385138    1.17196539521657
H           1.23263892076365   -1.36671426747762    0.94982049479514
H           2.21968659631639    0.16582237414592   -0.05396322016626
H           1.58012227553025   -0.13990752237104    1.84468272511091
N           0.29410569797903   -0.69375698872530   -1.97452274632260
H           0.39523240560711   -1.01064254187435   -2.93282509502400
H           0.26559436947301   -1.49196539397110   -1.30665668320271
H           1.08656494010760   -0.06271272076859   -1.69346834443606
H          -0.65083769613459   -0.17872604811639   -1.84073206081884
