    26
        -50.45954174  Gyration_radius:  2.65393084166 Dipole_moment: 3.185
 S          -2.44676767592506   -0.41921570971447    0.65563513188898
O          -2.64023608199217    0.30553922930085   -0.59582103589121
O          -1.87879361390811    0.39692325475166    1.70024284560629
O          -1.69537271821865   -1.65502870389857    0.44235774219285
O          -3.89614682285566   -0.85161502606835    1.13826692671289
H          -4.32163826323599   -1.14963604190444    0.33959077988175
H          -0.36878500722962   -1.77809111110759   -0.44393878910641
O           1.32302595652571    1.00628475666752    1.43698666674704
H           1.20780331171994    1.69728565827438    2.09075986117722
O           0.42192263417398   -1.71233451191710   -1.04414256238856
H           0.23064338450700   -2.28022238259181   -1.79189043268690
O           2.77547279036024   -0.02661540598767   -0.73591795630244
H           2.53233933747838    0.35247091090152    0.12100778426483
H           2.23474447297752   -0.82053935378089   -0.82817322679982
O           1.85356584749511    1.89379635235371   -2.41593202146872
H           2.32766717920621    1.19984265416023   -1.90793693391627
H           2.51246957104981    2.53224580441295   -2.68771214341019
O           0.12941263692429   -1.05574386500165    2.53145995932465
H           0.98263003384183    0.17803279484326    1.87152437686252
H          -0.69841255249090   -0.53790264175639    2.42112291069375
H          -0.01111317085992   -1.83235880780357    1.98227693492064
N          -0.12742571597592    0.94114617898303   -0.86406669223029
H           0.27465756562804    1.59470159384341   -1.55108945695833
H           0.17756591139161   -0.02222825820946   -1.12101748280826
H           0.28086249123272    1.13237067032911    0.07759050150422
H          -1.18009149177174    0.91089195096203   -0.82118371780262
