    26
        -50.46882324  Gyration_radius:  2.54694832733 Dipole_moment: 5.058
 S           0.01431868251128   -0.70303410205242    1.23086186660989
O          -0.45113303191406   -1.33782227341767    0.00002432046318
O          -1.00467589406278    0.18245318617923    1.78026901490405
O           1.26929931642367    0.01737011725954    0.99202389279855
O           0.28077275050544   -1.80093142180212    2.28214944347157
H           1.20390749765407   -2.12187758155093    2.05874434691500
H           1.22028792295678    1.23259762690428   -0.00819495364567
O          -2.86506678325794    1.48522706387203   -1.47781383577904
H          -3.45071867473378    0.77481153398078   -1.20936878189470
O           1.10915470928993    2.01432488691807   -0.61948641900775
H           1.97392043062618    2.42129603349099   -0.68907059337788
O           2.62270679776448   -2.27637301722634    1.35895396689251
H           2.59888587304642   -1.32777170938243    1.16164087698316
H           2.37639049743624   -2.71702149905861    0.51835873705469
O           1.34986764983792   -3.07413309597957   -0.85768808719138
H           0.64665970281126   -2.42718441349121   -0.62895117556873
H           0.90847466193211   -3.91699959555873   -0.97224398182187
O          -0.61762433910183    0.30634811302666   -2.09021807417137
H          -0.57618100559873   -0.38206244910574   -1.39355003016329
H          -2.07199026318550    1.03743182836289   -1.88422369066544
H           0.10080834898044    0.91892561854800   -1.88631418282608
N          -1.33533751633752    2.37351691758123    0.47452840218919
H          -1.61200024199308    3.17774589484321    1.02612717247744
H          -0.41018300339378    2.51227975886795    0.02382253279062
H          -1.23238768955699    1.49265558525679    1.08856229431724
H          -2.04815636720795    2.13822699506377   -0.27894304848143
