    26
        -50.45759494  Gyration_radius:  2.57418950189 Dipole_moment: 5.971
 S          -2.37160388791919    0.15074631416450    1.06677298774965
O          -2.03534190136983    0.64788121023341    2.36405979130998
O          -1.86234207868438   -1.19541819781306    0.78778758099421
O          -1.98242651026945    1.05623265725821   -0.01579384961596
O          -3.95612990208575    0.03494311180277    0.98613070707258
H          -4.11870218822986   -0.26136563441408    0.09500375790174
H          -0.76953176616603    1.69162166025462    0.80893986695837
O           0.12340431698010    1.96358973390783    1.14616543586941
H          -0.05317042764650    2.29918980682947    2.02766951893425
O           1.78733765538102   -2.00090784184612   -0.35707677054713
H           2.04305295328859   -2.86920994625185   -0.04481949036102
O          -0.59736758441867   -1.14591335394058   -1.49967852244841
H          -1.16944819254352   -1.17266862099044   -0.69318381768900
H           0.17690773728153   -1.69018807265994   -1.27886135927311
O           3.08231272205427    0.12511125941006   -1.34597784620812
H           3.60349790290074    0.44081000461192   -0.60526835998018
H           2.73353632481079   -0.75315320663789   -1.08043702989633
O           0.63881177705317   -0.72335688082930    1.59272104782575
H           0.61284987291195    0.24868455592215    1.56327266602905
H          -0.29460414473654   -0.99735720058762    1.49955618440066
H           1.38927285812189   -1.52800271852930    0.43031508584043
N           0.61162471492178    1.15903955956864   -1.50069296178635
H           1.61862990527975    0.86773416454874   -1.56021266649872
H           0.00263304504269    0.25445330688032   -1.51719119150552
H           0.44650217155854    1.63119440039121   -0.60319424040217
H           0.34029462648928    1.76630991872128   -2.26600652467429
