    26
        -50.45708422  Gyration_radius:  2.51483400189 Dipole_moment: 8.094
 S           0.74677914334893    1.25342552374197   -1.71988441270888
O           0.91908584802065    1.31136292772778   -0.29243835605782
O          -0.66773499770128    1.20198626745539   -2.10649791643321
O           1.49560946182625    0.17360531875836   -2.34592539197454
O           1.31297334663584    2.60269301428764   -2.31693826572309
H           1.20817802535543    2.47067748713219   -3.25369322560491
H           1.20976297198371   -1.12243949643837   -1.51064836418319
O          -1.87341496720847   -0.66349061518830    1.61478532888375
H          -2.42174182091889   -1.10448583488173    2.26410689601930
O           0.89242747500166   -1.94079907005445   -1.03277972588693
H           1.40347840063150   -2.66970027967086   -1.38915660298560
O           1.72510672706465    0.74712712602227    2.26702506434572
H           1.81174566562157    0.97326445419869    1.32924690784921
H           0.96441186564736    1.28020106668857    2.55242434215976
O          -0.74114058561385    1.96242962022784    1.82891728774993
H          -1.30430036203224    1.17834024195195    1.81912806723105
H          -0.24615399313620    1.93271706294097    0.99562473201969
O           0.53076607951870   -1.55778338363102    1.75410048953602
H          -0.93262952351985   -1.01554247427249    1.74871078098478
H           0.80305566952757   -1.71498925765890    0.83841068838377
H           1.05625850529968   -0.77135952915665    2.05170617506568
N          -1.60411411630140   -0.92133158654768   -1.02164402358085
H          -0.75612578242881   -1.52457834962269   -1.05230417310153
H          -2.37336090572124   -1.32972570382943   -1.54168585540659
H          -1.85990780888294   -0.77068443345611   -0.01316654269798
H          -1.29901432201871    0.01907992327471   -1.46742390388350
