    26
        -50.46147040  Gyration_radius:  2.5916510908 Dipole_moment: 4.213
 S           0.53261364432977    0.42981353603485    0.29723508283409
O           1.74041193359610   -0.03780345432559    0.93344086092411
O          -0.67033381822576    0.24701454049132    1.29412755496872
O           0.53730763222826    1.87662325574012    0.01961467633422
O           0.17776959955910   -0.30618919475105   -0.90818215332774
O           0.42652215644037   -3.58365539177528    1.69456069546752
H           0.93591589494436   -4.33537869306667    2.00091193136835
O           0.45775909099446    2.45587742330802   -2.61663221422537
H           0.60401144689411    2.31746697296759   -1.65946921388456
H           1.24783154564834    2.13385969079887   -3.05309272388043
O           1.74166435783409   -2.41473849825706   -0.30706727691167
H           0.88586936251422   -3.25101226288453    0.88599046673876
H           1.07422030055841   -1.98413649953941   -0.86099349877884
H           2.09908754304618   -1.66493504240048    0.19689917331048
O           0.49178355190368   -1.24368047722993    2.98734186942856
H           0.37958400859893   -2.15747978717159    2.63487547602834
H           1.30576842282241   -0.90566473490492    2.58359031716451
H          -0.33366841403392   -0.35421581228139    2.03658842857607
O          -1.66661405326844    0.82493387457244   -2.39265088317131
H          -1.04603783508175    1.45993213447760   -2.80545434962998
H          -1.05827814915080    0.19462900607411   -1.93936893526907
H          -2.05634774709688    1.58223237488124   -1.16676202689325
N          -2.01308908473094    2.08798709754477   -0.18916748806406
H          -2.47981934339915    2.98916862618949   -0.18319540442156
H          -0.95169134971019    2.16938736739677   -0.02490051311563
H          -2.36224070726316    1.46996392811468    0.54176012841745
