    26
        -50.46765640  Gyration_radius:  2.55079090758 Dipole_moment: 1.866
 S          -2.03510484300495   -0.67949994064162   -0.11543610360798
O          -1.66838485350330   -0.09321466742953   -1.39775681738313
O          -1.28708460002232   -0.04821594239761    0.97469204642145
O          -1.99051283956865   -2.11365841427331   -0.08952341728578
O          -3.55063252473109   -0.26981046348128    0.14400349937282
H          -4.03064549091868   -1.03013342216598   -0.16858657920573
H          -0.23129728126224   -2.81243923985478    1.03235439142813
O           0.36321805431274   -2.09590878723214    1.27853871617439
H          -0.23052184799834   -1.32172399712598    1.34730326185848
O          -1.07313667600278    2.40551549782731   -1.93846072913184
H          -1.42933610642353    1.49730650502952   -1.79619725085793
O           2.39694937387883    0.82095485480669   -0.24089127685531
H           1.95303414903406    0.14064878275947   -0.79945596300749
H           2.67928245586129    0.32812006901048    0.55625186124716
O           2.77279402480441   -0.86407863230049    1.84667631152454
H           3.46481533515872   -1.52305160986428    1.77202091741535
H           1.93124271640635   -1.34328306343963    1.76961297280715
O           0.84699188352252   -1.07626247831629   -1.28130004081335
H          -0.57576935807335    2.36046127118185   -2.75759798875056
H           0.77254036798052   -1.62762299042705   -0.48570926721759
H          -0.05603720464994   -0.77690660891574   -1.47678027280374
N           0.19916863071343    2.05204512527569    0.38229800447259
H           0.25000387940733    2.78166589279385    1.08384074708418
H           1.17310323491354    1.62980759872973    0.16267109539975
H          -0.41575191172430    1.26071986150901    0.70781051856717
H          -0.22892858845096    2.39856480877947   -0.51037863682748
