    26
        -50.46131610  Gyration_radius:  2.67083212421 Dipole_moment: 3.505
 S           0.93872601998510    1.41829705648147    0.32015535205408
O          -0.23706410987467    1.48601778863947    1.18174580232012
O           0.57935645364927    1.15405327594502   -1.05525195098393
O           1.89039685890122    0.41826716240969    0.83160244429905
O           1.65808429492666    2.80221304347650    0.36167515830626
H           2.05281900460826    2.83417073975108    1.25574599548096
H           1.27108137449941   -1.06787418159788    0.87342592050538
O           0.82004940157462   -1.95269948160223    0.87578813479375
H           1.24948881399332   -2.46772633863794    1.56028686157725
O          -1.44308586195902   -0.25952261887458   -2.25876219196457
H          -0.98384522463686    0.58780657339159   -2.15570888492189
O           2.86953125149960    2.08042797241251    2.60724938944678
H           2.57499152610025    1.28059591604845    2.12437492042002
H           3.82698947671170    2.10123891164426    2.54195465980667
O          -3.91031190638934   -0.97914561852901   -0.92804167138886
H          -4.78815908568934   -0.97149935506245   -1.31081113860746
H          -3.29720179105466   -0.74474320751798   -1.63782595737544
O           0.94756066149494   -1.40508181011166   -1.93665960689478
H          -0.70575287351791   -0.88451520625494   -2.42883135276993
H           1.10060870726031   -0.47520938729959   -1.69207696747454
H           1.01976643787617   -1.89824847745848   -1.11090172617873
N          -1.50553388143025   -0.62644571569761    0.41581237617648
H          -0.83774902277400   -1.36935526873976    0.68243378628245
H          -2.46256753352278   -0.82630145683056    0.70239801738465
H          -1.12277571401068    0.28901444056578    0.81434324888626
H          -1.50540328850107   -0.52373475654248   -0.63412062918824
