    26
        -50.46797330  Gyration_radius:  2.47255211761 Dipole_moment: 6.426
 S          -0.51649727597591    0.25335556828689    0.97637626584031
O           0.42801136695723    1.22632745010189    0.42672571817042
O           0.21765900402507   -0.93518985638955    1.43074726732425
O          -1.17122453086349    0.86625670681571    2.23239509410062
O          -1.55377179466605   -0.09508343852962    0.02353318459536
O           0.12335637059319   -3.08726322472670   -0.15141301338327
H          -0.64139409982372   -3.65767441713476   -0.06225818826067
H          -0.00789622967734   -2.35484416681895    0.48742873062753
O           1.87397101897005    0.32363416810072   -1.59287205802307
H           2.34036294337909   -0.69822439431772   -0.66849236350697
H           1.41391420872377    0.88625824644265   -0.93227919989326
O          -0.92156483443001    3.44157906862126   -0.10906003575985
H          -0.49465952266217    4.15164473242279    0.37294287911766
H          -0.36214908587876    2.64608549716295    0.02131790290451
O          -0.26401047998286   -1.11562181244302   -2.08602871396301
H           1.12837307385872   -0.15552644850372   -2.03740929965909
H          -0.10147395888634   -1.98199433878000   -1.68254141018224
H          -0.85834768043574   -0.66649616211027   -1.45363165345973
O          -2.98265543400220    2.02120748246127    0.85091506386643
H          -2.43222312338734    2.72200900566132    0.44275907723095
H          -2.89192208024360    1.25528583887699    0.26362830022182
H          -1.94996898194118    1.37761338578656    1.85562879187965
N           2.43320300219505   -1.44496570115700    0.15413994743585
H           1.64644763195640   -1.17543220432910    0.81772660143323
H           3.33750791651198   -1.42549493566201    0.61202331646280
H           2.20695256568464   -2.37744605983874   -0.19230220511901
