    26
        -50.47201767  Gyration_radius:  2.51760813074 Dipole_moment: 1.435
 S          -1.70309467589587    0.80809142523774    0.66805423827629
O          -1.19814249278401    0.55152351171091   -0.68106235927084
O          -0.67649203506262    1.36366311593631    1.52412727032865
O          -2.37353663964732   -0.35185235859279    1.21469330902620
O          -2.80602290646037    1.93306574034551    0.52053597524644
H          -3.53135601685408    1.44836493331063    0.14141180278890
H          -1.37448981476923   -1.62369659233078    1.18663020151948
O           1.10367894029943    3.04564651974894    0.40683998310925
H           0.40312967771032    2.51594596992030    0.83795433301812
O          -0.69255339435431   -2.34022734455926    1.15260496541597
H          -1.03097953261647   -3.05606189772740    1.69308966731191
O          -0.49195330572114   -1.92333199405225   -1.59169521089971
H          -0.45959469241125   -2.34068400218785   -0.71773574834129
H          -0.88982596575369   -1.05183420636184   -1.42405752712632
O           1.89174332757269   -1.22825251855266   -2.55165211759943
H           1.80800756394911   -1.12992150321402   -3.50062663586599
H           1.04017056754194   -1.62497596564993   -2.24212180511320
O           1.25038856905588   -0.51743624982753    1.78295089785718
H           0.59836356865182    0.18011737205277    1.97380318979516
H           0.72467510068405   -1.32376897127568    1.63949540615196
H           1.26595980667612    3.79124101630084    0.98569612219891
N           1.45940387705078    0.58091189197507   -0.62268837689629
H           1.80234592533803    1.54254736708490   -0.53955506087824
H           1.85838884567652    0.03027847790848   -1.41141379464145
H           1.60389588737228    0.08351870254754    0.29785125783510
H           0.41788979474487    0.63712758026397   -0.74313000322313
