    26
        -50.47201763  Gyration_radius:  2.51747521786 Dipole_moment: 1.431
 S          -1.68715768386887    1.07259617024026    0.04094203079199
O          -1.88744507819530    0.04095756521185    1.03651455558181
O          -0.84725070205175    0.60164553737435   -1.06073493957152
O          -1.21104294667018    2.33140420727866    0.57236360965268
O          -3.11269343661890    1.36119520518857   -0.58206788589804
H          -2.95982397567794    2.17123216659902   -1.05661482351286
H           0.33434615592639    2.18317885136221    1.02695553978653
O           1.26812590325328    1.99808839137632    1.29777904941458
H           1.54040067721272    2.74045380927005    1.83985319205145
O          -2.09124299022358   -2.50075356078632    0.17377810435562
H          -2.11793397475660   -1.57287550370194    0.48284397293806
O           2.65994056316894   -1.26712060383025   -1.70765473348435
H           2.80556040697415   -1.38472933087902   -2.64687756738000
H           2.48384410359644   -0.30253061931357   -1.57718599461154
O           1.79810564738765    1.22187599284612   -1.32233281479760
H           0.83688689775759    1.10587743020522   -1.41495102218156
H           1.91153719676923    1.54272362342424   -0.41507868395528
O           0.53193917933565   -0.50886187616089    2.11445954383832
H          -0.41614698474052   -0.31646854417293    2.00364521777259
H          -2.79032177256790   -2.95650753412904    0.64379223955789
H           0.98199153585667    0.34214140405003    1.97144470174347
N           0.40924834065955   -1.61233535510659   -0.29476022101515
H           1.28206008956800   -1.75778223043107   -0.84383585099745
H          -0.24100476892726   -2.40379633484569   -0.28403303229393
H           0.62937104852162   -1.33480107113512    0.70033950141955
H          -0.11129344173453   -0.79480779015948   -0.69858372917587
