    26
        -50.47201768  Gyration_radius:  2.51764063185 Dipole_moment: 1.434
 S          -1.32119107089584   -0.26240923328609    1.47816708123279
O          -1.17627153198682   -0.89102348161877    0.16483833074282
O          -1.13578126091943    1.17145336070523    1.40568076698280
O          -0.50562042399866   -0.92056563277477    2.47599397644476
O          -2.82593981757347   -0.48756986772861    1.91238142365057
H          -2.82600405877038   -1.40883483376356    2.14906488012555
H           1.03826679028480   -0.93862224504601    1.99386590557865
O          -2.02349017610672    2.43438317390161   -0.79953411685643
H          -1.78975701680652    1.99737803498499    0.04402433272635
O           1.95839435650410   -0.88518269158624    1.63310343706891
H           2.54213494236767   -1.11994504771194    2.35641736429027
O           1.34068196111932   -0.96809270106514   -2.97749143313974
H           1.36350818207632   -1.50782866415417   -2.14892965601080
H           1.00292205179065   -1.54747935137227   -3.66122368678485
O           1.06879217459009   -2.21785809386449   -0.64269549594465
H           1.64093112869271   -1.87335646653577    0.05940303530557
H           0.17546544701718   -1.93653611588626   -0.38048986874879
O           1.42130859006000    1.60743479365844    0.63726179557314
H          -2.46041684694324    3.25272407599484   -0.56165560770469
H           0.56693985754715    1.65902763468073    1.10147734741648
H           1.84188073678577    0.79508971401711    0.96956433848936
N           0.02534081040865    0.82044134861817   -1.47667788576334
H           0.50192063560895    0.32125714010030   -2.25645263896609
H           0.72830543150573    1.22384028254182   -0.79927223500379
H          -0.62629343444931    1.55831661308175   -1.75986941425309
H          -0.52602746777202    0.12395825399011   -0.91695199637035
