    26
        -50.46422372  Gyration_radius:  2.57426178408 Dipole_moment: 3.155
 S           0.87424088731199   -0.77921909938965    1.99033223482283
O           2.19503950348405   -0.19832818461201    1.90728997009144
O           0.36518122232666   -1.23122162089441    0.69343343570232
O          -0.10545385833925    0.06389934212701    2.64852820337242
O           1.04912768103245   -2.08842828561766    2.87111926861032
H           1.95900024141570   -1.99944883852582    3.13476425849034
H          -0.81051432245240    1.30840631703151    1.95062790011093
O           0.90494136693423    1.05527920326667   -2.09530416457957
H           1.21194871397593    1.71446541277818   -2.71833451927263
O          -1.16210681672555    2.07478396588162    1.42438358444994
H          -1.45977462159891    2.71785495900829    2.06913780670208
O           0.48345114712578   -1.77875094069014   -1.99243185406253
H           0.58648162958380   -1.80846257696856   -1.02750144369779
H           0.81512068794453   -0.90771900636758   -2.24923591224099
O          -2.18961393037833   -1.67560825719851   -2.13997339890394
H          -2.54529000823413   -2.50863591728243   -1.82857276489230
H          -1.21644712369358   -1.81688443368638   -2.23979386349080
O           1.47053617146164    1.81261022697574    0.34139669579692
H           1.84576104954794    1.11718346934375    0.91958818274178
H           1.26511711625435    1.32071041005173   -1.20654885468411
H           0.63727144467536    2.08905187535560    0.74940749500765
N          -1.26999845995630    0.32303125306192   -0.64292286770890
H          -0.62315007844503    0.73870435405930   -1.34037865492871
H          -1.94356676316397   -0.29412707155240   -1.14109979209284
H          -0.66433233069357   -0.30160703188618   -0.03215942781842
H          -1.67297052946337    1.05246045569434   -0.04575150760245
