    26
        -50.45759502  Gyration_radius:  2.57474488229 Dipole_moment: 5.973
 S          -2.18448366410245    1.00251163553352    1.00568638972033
O          -1.82556314120113    2.38497106997057    1.06363315058368
O          -1.39432124143008    0.13811367590032    1.88760096128664
O          -2.16951137815859    0.46048093130594   -0.35419497949092
O          -3.68741719454148    0.86841737001907    1.50945725596804
H          -3.87705287023410   -0.06118986964480    1.41782157111776
H          -1.06316071432911    1.49326891096580   -0.86864189554739
O          -0.23207862635512    1.92377360472927   -1.19883362073756
H          -0.37715398336397    2.85932254446631   -1.04202422790100
O           2.17466375285429   -1.22442812566668    1.04664524625557
H           2.67685500893543   -1.34460248330658    1.85299567375273
O          -0.47046076250288   -1.86109515429029    0.47877607677965
H           0.43659826780709   -1.90999206985925    0.82420551885783
H          -0.91456892824754   -1.16143183230089    1.01882776118727
O           2.76191286521026   -1.12791511986932   -1.56533621586569
H           2.67948469453519   -1.29377339924319   -0.60138978558259
H           3.28066291245780   -0.32619895884218   -1.65519037911578
O           0.98872494011277    1.08576601954110    1.14494186624702
H           0.71723900038812    1.50749250968215    0.31139269342508
H           0.14947270806469    0.87097369108252    1.59710708698478
H           1.77021937756734   -0.31058174156923    1.10398568808090
N           0.11225628531747   -0.79389839756939   -1.82246188034804
H           1.14389449412474   -0.97857923375344   -1.88382893655671
H          -0.39787329601780   -1.19285289580986   -2.60267210812734
H          -0.24782340371371   -1.22823771924648   -0.88907584290767
H          -0.05051511317233    0.21968503777385   -1.77942706806916
