    26
        -50.45759479  Gyration_radius:  2.57529235939 Dipole_moment: 5.987
 S          -2.24269442372871   -0.66945232826145    1.14778347621002
O          -2.37340268852509    0.39665890636358    2.09096563820204
O          -1.09449019067802   -1.54863410213007    1.38876934365986
O          -2.22513228727453   -0.20953174564826   -0.24199704840038
O          -3.52799301896802   -1.59734392886536    1.28121533194310
H          -3.40130833246909   -2.26153150349751    0.60947438140326
H          -1.61419038858950    1.22013124923551    0.12698482876265
O          -1.03134053785653    2.01637871762236    0.23440639426629
H          -1.46572367437147    2.53182130327322    0.91739795693701
O           2.57913633170831   -0.75627309249181    0.30732947319702
H           3.19356093281678   -1.16566019830436    0.91698338850316
O           2.74991386613409    1.12294570734320   -1.59426001023278
H           2.85607702343900    0.38370974465472   -0.95730539763576
H           2.95187689448891    1.92525544958145   -1.10910775744053
O           0.25954774238374   -1.77231607074041   -0.83668071764668
H          -0.32080874809521   -1.76497203719119   -0.03575171285541
H           1.16613101776952   -1.70522693874347   -0.49297567603994
O           0.70184386970780    0.40480445576162    1.67845655302893
H           1.89916443584717   -0.28549709143818    0.87141707967354
H           0.19472775771577    1.12232079255346    1.26092985168937
H           0.05403457998311   -0.31704353966689    1.79803538560116
N           0.13455625876627    0.60323498693789   -1.89278401478804
H           0.07041918068195   -0.40415817170774   -1.47986188727143
H          -0.35530811792756    1.23723100460625   -1.24936661028766
H           1.14981491211367    0.86681318648096   -1.93549615326210
H          -0.30841237508036    0.62633522427208   -2.80456206721993
