    26
        -50.46067249  Gyration_radius:  2.43609061769 Dipole_moment: 5.401
 S           0.06396235226774    1.99809083178426   -0.06089443126994
O          -0.82909728091927    1.68645522134826   -1.16430511909359
O           1.41764345952095    1.53806782050499   -0.30240626976905
O          -0.47767602040362    1.54429859609512    1.20959366938255
O           0.13201374338213    3.57394790815337    0.03928074150939
H           0.55811978612087    3.79630187763612   -0.78167903967325
H          -1.70029176172412    0.45225272842495    1.15682304423558
O           0.76144081635067   -2.44830063218291   -0.59467889713360
H           0.57472574452797   -3.18790084913762   -0.01527872576264
O          -2.40076082077257   -0.24035088673365    1.07020846334311
H          -3.23349757305483    0.22957432717125    1.13657617522729
O           1.16748229565484   -0.14034810404390   -2.43747394599773
H           1.75926674240508   -0.86472978350202   -2.22142889166730
H           1.32731880049843    0.54380575369256   -1.76824248085629
O           0.36077802491332   -0.40396881161260    2.86996048221566
H          -0.46043620415232   -0.89966940554589    2.90126618796817
H           0.14043160689728    0.43251777263187    2.42155683844522
O           2.14185849814002   -0.79360475362344    0.84331662503286
H           2.02671012731197    0.09010045124217    0.44709965818725
H           1.67321357905411   -0.74891722031089    1.69764243690622
H           1.36150601204066   -1.83671524238363   -0.07294559508269
N          -1.28594093167761   -0.88412696748954   -1.28704442797812
H          -0.97144225411010    0.11804954129550   -1.43581923480182
H          -1.78692240878249   -1.20873833324433   -2.10705026282298
H          -0.43791652376202   -1.49369660719268   -1.11243597130064
H          -1.88248981972252   -0.85239523295272   -0.43164101923200
