    26
        -50.46067227  Gyration_radius:  2.43608061185 Dipole_moment: 5.402
 S          -1.91707223941395    0.44795885360905   -0.35732471849192
O          -1.85826084710113   -0.04935833639822    1.00342715583092
O          -1.65831558589733   -0.59445971795164   -1.33637297768844
O          -1.07377090898358    1.61099887457473   -0.57955682958042
O          -3.39977555279259    0.94025915793115   -0.59600304663841
H          -3.89619158928197    0.16404829944996   -0.35950526833271
H           0.23906493947231    1.41302154312916   -1.54228537656534
O           1.99426469156275   -1.28624953280995    1.13961863952358
H           2.87031391792643   -0.90511617347168    1.20924879885834
O           1.04254697494047    1.22897881428567   -2.08860362075386
H           0.81594001636812    1.50715631937785   -2.97736046469881
O           0.94393228579611    2.61317283653829    0.89739902444915
H           1.61420921260584    2.60013323527635    0.21063137775648
H           0.10400078377511    2.42276576157270    0.44186109880279
O          -0.69712957459095   -2.50479274401161    0.75476363647191
H          -0.10187271529855   -2.54661346720688    1.50679954032807
H          -1.22951665479265   -1.70325345211833    0.87951473180465
O           0.43014950355551    0.37508973364630    2.36610413815372
H           0.69255499772608    1.25738902614912    2.04319708430944
H          -0.46660916841476    0.23361389026160    2.00971864927286
H           1.39295569756534   -0.69043027792728    1.67793140203594
N           0.85090561416110   -1.32235065479222   -1.27103724886618
H           1.15670755571541   -0.42730481853883   -1.71149603969128
H           1.09211382082448   -2.13786271499965   -1.82377824895226
H           1.26326898478410   -1.40497035673735   -0.29941013667130
H          -0.20441418025084   -1.24182409883994   -1.19748132067297
