    26
        -50.45821581  Gyration_radius:  2.51862574282 Dipole_moment: 3.051
 S          -0.45406271714585    0.43654601290621    1.90811676923050
O           0.75722898974530    1.24859917735002    1.87690752229050
O          -0.16499630054164   -0.92281640049067    1.50205877184739
O          -1.55255228319898    1.02481539508829    1.16607586867794
O          -0.92592305558874    0.40981684918717    3.42412926120458
H          -1.86116424141178    0.23644124138663    3.36266913398650
H          -1.10495300542302    1.09049735340160   -0.41623425106010
O          -0.58330989237630    1.24611855294463   -1.24206407608680
H          -0.29501912639085    2.17136354306069   -1.14215513098074
O           1.59807341121043   -2.20218833898873   -1.45032980902389
H           2.06917228750240   -2.44482694308214   -2.24846635220990
O          -1.90416700580887   -2.36191260574638    0.15534705606618
H          -1.30120734631823   -1.79714434592165    0.68957271063120
H          -1.62351796494971   -3.26375229416514    0.32208815636500
O           0.61556219614231    3.25661613507053    0.10098702441896
H           0.12532438145414    3.99105839757305    0.47258089725620
H           0.69625590620843    2.60033067703046    0.82431763323660
O          -0.82917011783800   -1.48698721047879   -2.13582396610656
H          -1.36190393282740   -1.83564050317160   -1.38621513044814
H          -0.91007648278351   -0.52785041895738   -2.07656862523100
H           0.65445908950624   -2.03387832297460   -1.72637152994502
N           1.70344555829132    0.22575446179921   -0.39588212574076
H           1.52199724139844    0.36729120345677    0.62071152747493
H           2.51938418464610    0.75971378493889   -0.68063117107841
H           1.78848228291663   -0.79409398845046   -0.65673411173521
H           0.82263795363583    0.60612861721227   -0.86808604306224
