    26
        -50.45821584  Gyration_radius:  2.51835480889 Dipole_moment: 3.051
 S          -0.67827765399908    1.56482504922387   -1.06205158452873
O          -0.84889479268435    0.21104003971615   -1.54632576983703
O           0.72362359194751    1.96141712354014   -1.13283240888948
O          -1.26207680702914    1.77173984544388    0.24928223227105
O          -1.46013258604699    2.54143199543608   -2.03988157444564
H          -2.35178048764981    2.52674179814710   -1.70347004109480
H          -0.46953922543432    0.79887950279807    1.31251113487296
O           0.91349952953393   -2.87541377715799   -0.62943241464720
H           1.42508037181338   -3.62824330246553   -0.33054299320207
O           0.24761238063152    0.33220901402782    1.80903906141540
H           0.83704567098006    1.06236782587464    2.07076579410867
O           1.77982891002765    2.48971315727564    1.27796761789823
H           1.54215213203540    3.37532780072359    1.55545924345884
H           1.43152670670355    2.39625165278832    0.36671005802842
O          -2.64492995851845   -1.40122609008911   -0.50562638424604
H          -2.01170456247508   -0.75095235998961   -0.88531972455039
H          -2.77920263768636   -2.05746245144513   -1.19207287434179
O          -0.82259673860821   -2.28759690249686    1.24494018029090
H          -1.60466405705286   -2.01216886256698    0.71604677671036
H           0.19872904405906   -2.73825106046414    0.05262284155455
H          -0.53827740306773   -1.49026800525513    1.70692645832358
N           1.70050951270889   -0.36937731325160   -0.28398912778080
H           2.70118619431759   -0.27198177515144   -0.13876143666033
H           1.35770898630753    0.38326048817707   -0.91842560121769
H           1.44325202301279   -1.33618397057120   -0.62210771952028
H           1.17032186615456   -0.19607942226293    0.62856826603788
