    26
        -50.46067222  Gyration_radius:  2.43613369392 Dipole_moment: 5.417
 S           1.91392467250651    0.50770140193500    0.28644788972249
O           1.45634275948076    0.25679300298950    1.64285146475179
O           1.26738729030012    1.66186551104884   -0.30702340824139
O           1.82419433086111   -0.68650486812052   -0.53757670624041
O           3.45420070482784    0.84937047184945    0.38113467396018
H           3.43623586572520    1.66931246662421    0.86316320109933
H           0.88284637117117   -1.90979747791621    0.01659034938885
O           0.26559919695884   -2.59670625564334    0.37021477547651
H           0.82253382978612   -3.23017713281306    0.82541963810749
O          -2.58681447509643    0.42702937431577   -0.24645894406701
H          -3.15899352609492   -0.17417783009397   -0.72471670095246
O           0.22531433293573   -1.24964967333028   -2.63154909806882
H           0.95796915687179   -1.02650403278718   -2.02936298488258
H          -0.16107049841026   -2.05265452086785   -2.27516352421346
O          -0.81371417669971    2.18572146242361    1.37688850841319
H          -1.53179270099113    2.40941746626316    0.78021052358638
H          -0.01766140291580    2.12366290485069    0.82565905672175
O          -0.80427864957334    1.18491268214702   -1.96621209724822
H          -1.93943638308760    0.78587328251285   -0.92365461691690
H          -0.02715264713803    1.47890151271655   -1.45545001787518
H          -0.51631235751271    0.36769966109741   -2.41438813661035
N          -1.01062679099981   -0.60521230721405    1.64302842702767
H          -0.10751075444774   -0.05557463681326    1.73258874410622
H          -1.45669479832024   -0.67691107137354    2.55113775422476
H          -1.65203832645592   -0.11363951864908    0.95905562537423
H          -0.72245103369539   -1.53075186512351    1.25716559337699
