    26
        -50.46067256  Gyration_radius:  2.43606870875 Dipole_moment: 5.400
 S          -1.95864723373319   -0.05177299767126    0.39937336256910
O          -1.56586588908227    1.34264198433752    0.46084174545842
O          -1.40393898092062   -0.82936909630923    1.49461518859621
O          -1.68265283603248   -0.66879878948376   -0.88766664573305
O          -3.52999819408184   -0.08768874659805    0.56484427548776
H          -3.64458622046895    0.39251501040749    1.37803297755899
H          -0.51033183049002   -1.81452914070673   -0.93746314334911
O           2.44976279925869    0.95268723126807    0.10878369939043
H           3.09361564935765    0.76231231126594   -0.57445333759115
O           0.23667701638643   -2.46233040114416   -0.92159424005372
H          -0.17490326840879   -3.32485839020014   -0.84878221365341
O          -0.11005420362275    0.14744606018636   -2.91612242622025
H           0.43341239230750   -0.64135741407383   -2.97484801996660
H          -0.84003106899920   -0.08616233569632   -2.31453210240789
O           0.45953322865948    1.37233327615434    2.28739019520992
H           1.09233562124223    1.98638917282094    1.90777722348984
H          -0.33674805867305    1.43453963663429    1.73647242076023
O           0.48218186502167    2.10856804483860   -1.11771690598204
H          -0.31203170473420    1.97353142173780   -0.56798023491068
H           1.71765347879873    1.46993330241089   -0.34149421910677
H           0.32957295856542    1.56978469402112   -1.91642068788587
N           1.17752712098801   -1.11983082373363    1.20582774124072
H           1.04822836249218   -1.78614615558097    0.41336553919808
H           0.19368592111078   -0.85528250117679    1.50146773210986
H           1.67018571067371   -1.53056265287271    1.99154868053785
H           1.68541735439760   -0.25399270082532    0.86873337524468
