    26
        -50.47200588  Gyration_radius:  2.49873355235 Dipole_moment: 3.921
 S          -1.17539005606563   -1.85527069370997   -0.02050098197663
O          -0.79530942507281   -1.57521646002503   -1.40371374463071
O          -1.56748507546320   -0.66036145904191    0.69460452562620
O          -0.16944629186135   -2.64605350807843    0.66221281671319
O          -2.47103516711502   -2.76420062740447   -0.09870197187978
H          -2.11228728922130   -3.59815997428026   -0.38278343044641
H           1.13798216304404   -1.81834102607135    1.04096607249335
O           0.59985139693660    2.91989669863526    1.13323872029269
H           1.42475617808677    3.23514823881706    1.50435788160408
O           1.93266465387560   -1.24267898342545    1.20159161291312
H           2.60481315133806   -1.81906995596695    1.56905503640382
O          -2.04985431242786    0.73642730692778   -1.48834866568832
H          -1.68824404902918   -0.11983103916596   -1.79127125483450
H          -2.22817666304692    0.54405905389615   -0.55234807279349
O           1.56152361970585   -0.35877132261779   -1.35539034175335
H           0.75949826488894   -0.90839141670415   -1.49033862730847
H           1.88636791698340   -0.60521007584383   -0.47088643977158
O           0.18469437198969    0.61153703365459    2.28558793435889
H          -0.57123843674622    0.18649104641893    1.83869483729851
H           0.94048764044323    0.04185771062289    2.07202718151869
H           0.37049502225338    2.09282002357621    1.64173869126171
N           0.29318551563746    1.94506881497148   -1.32789780706342
H           0.91028678545788    1.07508197102638   -1.36642083973569
H           0.41678882203951    2.41271934659052   -0.39365440134947
H           0.51291700344856    2.58173826518130   -2.08554737452154
H          -0.70784575010083    1.58871103201146   -1.41627134672220
