    26
        -50.47200575  Gyration_radius:  2.49880969999 Dipole_moment: 3.916
 S          -0.61119421935407    0.51481308197340    2.04614168812220
O           0.24324603770006   -0.66740655606669    2.13915389659587
O          -1.52504700824643    0.44545070688667    0.92686922567738
O           0.16239104141805    1.74043709778172    2.09959543570295
O          -1.51274657759050    0.50663209411110    3.34921556238180
H          -0.89187718665732    0.76293718424672    4.02278026506476
H           0.96699218277838    2.04329231645810    0.75826935976865
O           1.46887503882287    2.13511896470123   -0.09514625101402
H           2.03248304185714    2.90301195439977    0.01274170241239
O          -0.60035353841398   -0.24244269230116   -3.12216547180525
H          -0.10052437773994    0.15610305813283   -3.83554026275408
O          -1.33822320588038   -2.17231051329621    0.67123181893094
H          -0.70208865537709   -1.92044621910798    1.36979643428163
H          -1.85010325853379   -1.35129547341336    0.57891347056929
O           2.02417572775500   -0.52525426025775    0.17820650392163
H           1.49833426431524   -0.60930315882159    1.00280338879282
H           1.99167321455241    0.42276138715641   -0.04241775039642
O          -0.93860474471264    1.68099729058687   -1.38575039461642
H          -0.05730468596861    1.98251232669186   -1.11406777462608
H          -0.83298769165985    0.50376260817574   -2.50231280590591
H          -1.31964613346102    1.29060643445721   -0.57692487391177
N           0.38443529202961   -1.93739911702569   -1.31680311408234
H          -0.00489592490254   -1.33777220224593   -2.08855980211113
H          -0.37889861189158   -2.12881312168359   -0.59724343682814
H           0.75482364395499   -2.80698566841127   -1.68328578864222
H           1.13706632518000   -1.38900751315262   -0.79550101553796
