    26
        -50.46496019  Gyration_radius:  2.59903069273 Dipole_moment: 2.438
 S          -1.78067186069530   -0.67661047613564    1.11845264299582
O          -1.79248961835284   -1.87964616113271    0.32557022648676
O          -1.63629756018972    0.51716185533045    0.27401610261216
O          -0.80964878699324   -0.68037677973429    2.19603537204917
O          -3.19728444733785   -0.55242225620924    1.81737505571948
H          -3.00315335381497   -0.01529995960426    2.57997396786551
H           0.60783103683851   -0.98521486426244    1.54295790567962
O           2.02231146802067    1.62137550522268   -1.94385649598870
H           2.89226184451558    1.55345446930056   -2.33815599130530
O           1.42210166137178   -1.19765953083435    1.01282334378786
H           1.65854502675127   -2.09572172557925    1.25003102103523
O          -1.12974172795737   -2.41428806245679   -2.19551073944186
H          -1.93568216370201   -2.46053987844541   -2.71175330905959
H          -1.41460348722185   -2.37195303041553   -1.25718995372329
O          -0.20433656840958    2.51290614024054    1.29109891737767
H          -0.43718990255719    3.25498063405772    0.72995586795418
H          -0.76393434058723    1.76462720101774    0.99666531806947
O           2.24097617992014    1.51764753303250    0.67847888772223
H           2.16827087198779    1.70306199305215   -0.96352963284874
H           1.43300805999746    1.95127750461703    1.02245189942306
H           2.16339080527335    0.59259566290538    0.94558950627086
N           0.30865825601581   -0.32923760586718   -1.30469637327247
H           0.86089557433901   -0.78357277257302   -0.54775242955708
H          -0.49849543542875    0.12639849063982   -0.81274119217031
H           0.90549519511472    0.38719407620004   -1.77679875279826
H          -0.08021671688931   -1.06013795232772   -1.92949117487583
