    26
        -50.46449292  Gyration_radius:  2.37973987566 Dipole_moment: 6.444
 S           1.40104688280118   -0.18557588617615   -1.13209741177265
O           2.81010866829202   -0.39868956483998   -0.90690930588423
O           0.92654935005327   -0.34891204224158   -2.48697265612153
O           1.17144613780503    1.36069272125677   -0.74264695717632
O           0.58866894387720   -0.92365961612744   -0.16681576384694
H           2.15915056708287   -1.99691278210322    1.43870340736879
H           0.19984713757288    1.57570904565426   -0.88606216683215
O           2.66716903452364   -1.18970684392755    1.55716598830238
H           2.87866102151751   -0.90361410669074    0.62644665661534
O          -1.70149477401715    0.40726576440678    1.67339745625127
H          -2.34582687878976    0.31812186969943    2.37661181891695
O          -1.65868941052848   -0.34614720305227   -2.48364234984071
H          -0.66493732345959   -0.42802836700927   -2.50143066084282
H          -1.92352105568321   -0.25838483562153   -3.40066771283463
O          -1.37490864114866    1.73476939643099   -0.81279807794164
H          -1.64091384130182    1.04005248949990   -1.45156579349466
H          -1.62686636586422    1.40969875811716    0.06451870566916
O          -1.92009154530742   -1.57219362606835    0.00980032312742
H          -2.22158145672714   -1.29905543067266   -0.86733445616430
H          -0.94081716227162   -1.54753785503442   -0.07655813231720
H          -1.83199412527885   -0.39014379765001    1.07369014916870
N           1.00442142457820    0.80371120713993    1.85329434393948
H          -0.00654484155586    0.54478231215129    1.89681384326348
H           1.16204951460746    1.19949870201302    0.89550624518440
H           1.25365979882352    1.46598945173445    2.58145071309483
H           1.63540894041360   -0.07172973094723    1.86810177413817
