    26
        -50.46496016  Gyration_radius:  2.59886498624 Dipole_moment: 2.438
 S           1.80689767071338   -0.85215660851491    0.94167194360517
O           1.51646559696185   -0.09201043358327    2.13071813539200
O           1.71758025256911   -0.01413450507919   -0.26195807118772
O           1.02158365493978   -2.06342144988738    0.79981444629244
O           3.31565591021220   -1.32701826947662    1.03610125142294
H           3.32301828704294   -2.09878689956317    0.47749617649914
H          -0.50796209076638   -1.63659483550728    0.88523431490557
O          -2.02640991574295    1.65087617363631   -1.91463877723393
H          -2.94624997233161    1.90854718172520   -1.98095842512501
O          -1.41570369264499   -1.23932411155527    0.97068043638188
H          -1.74522468874016   -1.52775859604405    1.82324413617364
O           0.77360857891824   -1.19366762229032   -2.44926612016391
H           1.16297439693632   -0.83396719437956   -1.62535580739579
H           1.02764549331859   -0.58874146191627   -3.14876643054452
O           0.40812005990146    2.29017604504744    2.55225809414786
H           1.11079266176547    2.91999080612318    2.71870780458237
H           0.83420709217070    1.40599163740624    2.55600988703909
O          -1.85793400996325   -0.97615474842999   -1.83834688203185
H          -0.95122857249214   -1.18584426572281   -2.14336361540840
H          -1.88091890750842   -1.24758672969109   -0.91158914597182
H          -2.00804034817535    0.66165750095166   -2.01498904789911
N          -0.54918060000106    1.23671238411113    0.27535698140224
H          -1.09610406161319    1.62827334864804   -0.52460187839164
H          -0.37392990795861    1.89767767379261    1.05520220787164
H          -1.04214288367426    0.39616774354770    0.64258441090785
H           0.38247998614946    0.88109724667068   -0.05124605526036
