    26
        -50.46449290  Gyration_radius:  2.37975317166 Dipole_moment: 6.444
 S           1.45500683506260   -1.00919638107118    0.37883807176663
O           2.01601037459334   -1.54868306755148   -0.83839990086119
O           2.22829150990079   -1.18443224731062    1.58421139150807
O           0.09458111365864   -1.82350313758245    0.66420760898901
O           1.01807193964741    0.37677376423086    0.22173865797260
H           1.73780792664041    1.60404427761882    2.26445870726589
H          -0.49052262416856   -1.74508295495999   -0.14963596012184
O          -2.04448396401714    1.27230853188579   -0.25207611879710
H          -2.69210154939540    1.97241245874872   -0.34186164426042
O           1.40450756795037    0.92051788834041    2.85214004934821
H           1.80777525968809    0.08250286237704    2.49438597702248
O          -1.47032583327902   -1.29628252328165   -1.31102396228387
H          -0.81422216406392   -1.08708374552345   -2.00900663161561
H          -1.84150535110750   -0.44895130067431   -1.02269391425650
O           0.64133853086881   -0.69378638397323   -2.85404661676464
H           1.23251310934249   -0.97346859793041   -2.10113761980019
H           0.91821023761901   -1.22134152510862   -3.60489344308795
O           0.02987172921310    1.78402251978703   -1.72477599246860
H           0.57761632655276    1.39049155649410   -1.00912940552768
H           0.14227026239533    1.15746836155636   -2.45256190241789
H          -1.26801916439815    1.53493396979167   -0.83574377684816
N          -0.96736975278458    0.19858011522466    2.02825865569865
H          -0.05347741709402    0.63562116849860    2.40050497685424
H          -0.65210189419766   -0.71748048454999    1.62786599710143
H          -1.65679913658441    0.07248834990609    2.76293326126403
H          -1.35294387203571    0.74712653504420    1.22744351431257
