    26
        -50.46546485  Gyration_radius:  2.58514953525 Dipole_moment: 3.368
 S          -1.49159192449405   -1.12932857329265   -0.90749753780861
O          -0.47928820674888   -0.19309065397959   -1.41543366029866
O          -1.63848533296803   -0.97602629791674    0.53019685075073
O          -1.26813286631884   -2.47224603021209   -1.36216090858465
O          -2.87689930552697   -0.66027460407277   -1.53011207397580
H          -2.95362874588343   -1.20727978304115   -2.30524898197408
H           1.05187821527242   -2.84126071560575   -1.15456917355512
O          -0.24493740127609    3.12901606105123    1.35814726332492
H          -0.48548428206450    3.86668569879058    0.79587239046933
O           0.74418730028985   -1.31247076124091    1.70676815670254
H          -0.20398436549296   -1.32307101006509    1.47422658132876
O           1.42612014178827   -1.98436046277015   -0.93185484396437
H           1.18054062349386   -1.81476293085694    1.00153206920725
H           0.73690768458031   -1.35103388967286   -1.21841664179424
O           3.26150770042827    0.10594350702927   -0.96702045615516
H           2.81837545372626   -0.75781831115978   -0.93154664571976
H           3.42743105771531    0.28290623718654   -1.89411381599200
O          -2.32059168222001    1.45507136904707    1.30028519205373
H          -2.83094906232372    1.29076296480198    2.09513893782495
H          -1.04782901156057    2.56035630056336    1.41518355997062
H          -2.08812704261468    0.56618104709350    0.95079134419283
N           1.07082478155607    0.98335890405388    0.40552575740560
H           0.39785275923060    0.68070907070457   -0.33933202625645
H           2.01724734231151    0.98371455694630   -0.00802631260477
H           0.76582586067327    1.89749981607304    0.79996778171936
H           1.03123029844622    0.22081851045936    1.13169718367311
