    26
        -50.46116967  Gyration_radius:  2.61867199313 Dipole_moment: 2.792
 S          -2.05228669920200   -0.45684371085864   -1.10433481474811
O          -2.16250819757277   -1.48970481890770   -0.08174825120427
O          -1.39186608905932   -0.87945961622505   -2.31136830229029
O          -1.44406352416894    0.75774735831685   -0.55226832296982
O          -3.54765275936289   -0.08190555555091   -1.48029169602858
H          -4.02081544332933   -0.32151231825363   -0.68947847668128
H          -0.14636230295610    1.18445344884465   -1.43391628318501
O           0.12180132695530    1.07818314515478    1.61975524671612
H          -0.60457345415775    1.15528120877891    0.97347399945533
O           0.69021805292225    1.40237256693505   -1.91799876627674
H           0.41342333772839    1.68184811710600   -2.79187255149286
O           1.17643483411791   -1.29507243167170   -1.77308788328190
H           1.36605422310258   -0.34869567570209   -1.88754195612181
H           0.26684195961257   -1.37317985530209   -2.12835212656879
O           0.89163846296744   -0.99545214478783    3.43955922927257
H           0.88648008195007   -0.92460951819837    4.39454636659827
H           0.58884950292351   -0.14234552772538    3.09864804510800
O           2.05159792442806    2.36748084823982    0.23290513557773
H           2.93767737482161    2.00743716572278    0.17241032364236
H           1.61218268084200    2.16909356877491   -0.61479924670952
H           0.83612254954561    1.64796910590986    1.26704293901493
N           0.32614433940142   -1.45216200154931    0.72195364249742
H           0.38126363691076   -0.47345110968319    1.10400685917416
H           0.83822549661623   -1.50901460356267   -0.20196283856263
H           0.68017816103968   -2.08772762091958    1.43336869659720
H          -0.69500545576068   -1.62073000647944    0.51135104183757
