    26
        -50.46400005  Gyration_radius:  2.54754728759 Dipole_moment: 4.776
 S           1.89081486196055   -0.27115621532331   -0.92856128789838
O           1.13038694211777   -1.02776973231552   -1.91528197977639
O           1.75703642228974   -0.76808287649464    0.41731279841934
O           1.59274329180085    1.15806231208659   -1.03437706534526
O           3.41314934252794   -0.43640209588699   -1.32808948952771
H           3.40272437194284   -0.30640326537201   -2.27111708121822
H           0.04954557792151    1.67029256110241   -1.06649383845602
O          -0.90891956822110    1.91767175541940   -1.04299483775865
H          -0.97137407469458    2.77525771207048   -1.46577815283181
O          -0.66277822680207   -1.02376108379602    1.53346270115117
H           0.28816046023614   -1.09672929474633    1.32321190976832
O          -2.78865781751141   -2.62770528984353    0.42331230876546
H          -2.16045616668762   -2.28625404013390    1.07464709826765
H          -3.27516778456049   -3.32972281479561    0.85652444644482
O           1.91390786169615    1.75920995203126    1.56361833413846
H           2.19411510598730    0.87720055964981    1.82720018192549
H           1.88913510639165    1.71411789819493    0.59118789805992
O          -0.77517297894338    1.58856850396006    1.77993675902133
H          -0.78521146382142   -0.07803369313598    1.81402727495897
H           0.18260328673992    1.78149468366792    1.87038334133368
H          -0.99978083968498    1.85068718006418    0.87579356184149
N          -1.29863854161908   -0.76973027371557   -1.00698450493630
H          -0.38343451694035   -0.98908573033977   -1.49120100681683
H          -2.04934356873857   -1.41175332343558   -1.25486280185161
H          -1.11458417021140   -0.88621461197430    0.04344716905862
H          -1.53080294312751    0.21624124310601   -1.18832372675264
