    26
        -50.46400000  Gyration_radius:  2.54725616319 Dipole_moment: 4.776
 S           1.39214513734831   -0.98356468751172   -1.26420121457739
O           1.32055857641340   -2.04379845939964   -0.26669437847667
O           1.79574278691283    0.29275410888896   -0.73095688635469
O           0.14413648899134   -0.90781052366220   -2.02541515618435
O           2.51157342693957   -1.42421767026047   -2.29238201865745
H           2.31470525102924   -2.34333467280414   -2.44366657646070
H          -1.28379965021573   -0.85241621427355   -1.24863325814225
O          -2.11503946157002   -0.78367974867721   -0.71505757622491
H          -2.82056544995337   -1.09666303502795   -1.28282328412896
O           0.44101138244934    1.40623862434816    1.29155224122191
H           1.12185535487019    1.17353280081520    0.63115390842265
O           0.19020297218559    1.73912798867439   -2.47848475469861
H           1.04600692394540    1.88725870295365   -2.06425568313919
H           0.10773415654746    0.76908494429660   -2.50120170054828
O           0.04936805184518    0.13580822387308    3.85219978433646
H           0.29226419670642    0.81599651065249    3.20892208726983
H           0.28491975615701    0.48003375140129    4.71426334968507
O          -1.50076460632000    1.97475260164123   -0.38292675401716
H          -1.93519410124285    1.11366600702380   -0.46297399284098
H          -0.29850337325646    1.80348923294566    0.75919733165920
H          -0.97709455857775    2.07315025093201   -1.20686749235602
N          -0.43385215531209   -1.07286088646505    1.39796913328203
H           0.30115287196684   -1.59449352807799    0.84311241594144
H          -1.32408942347034   -1.12763404319706    0.88476993638430
H          -0.50641208443167   -1.38658212242649    2.36415638319155
H          -0.11806246997913   -0.04783815669472    1.41924417540292
