    26
        -50.45901490  Gyration_radius:  2.6885988527 Dipole_moment: 4.416
 S          -2.35303838570139    0.66828226990963   -0.93545981642422
O          -2.09119474305715   -0.34610139092579    0.08131562351728
O          -1.58842264441518    0.45339291166360   -2.14303905453646
O          -2.21808093564056    2.01328841429364   -0.39839824282195
O          -3.88184454747960    0.50509958179423   -1.33656601762513
H          -4.34073852265363    0.76502352777955   -0.54345086151329
H          -0.67263655512754    2.10599344834659   -0.28138048227106
O           0.32396768663777    2.12913685950512   -0.19311046455103
H           0.59154386453208    2.97270328184178   -0.56245498647524
O           1.44427164788563   -1.32284965943112    2.61735901150362
H           1.66813676821249   -1.10581335398749    3.52319695724657
O          -0.53131084079332   -1.80510327598851   -1.48144456783413
H          -1.04560610356856   -1.74565331209154   -0.65931829875722
H          -0.97838227797650   -1.12103104559471   -2.02864977271789
O           3.18937474449155   -1.15171806033149    0.67048116491984
H           3.44630291931506   -2.05862259087028    0.49505073560906
H           2.58672348400227   -1.19443390848157    1.45902146942402
O          -0.40591545348965    0.44273306784575    1.98013502490049
H          -1.10425620366952    0.10997251682890    1.37905556499485
H           0.69922874247478   -0.71600550685586    2.37425416826862
H          -0.03441820442424    1.20915967395649    1.52895571343166
N           1.47408932889382   -0.15583095318660   -1.11255193480504
H           1.89776746684218    0.02520054295390   -2.01679459085597
H           0.70014577752388   -0.89458202751457   -1.23186678479099
H           2.19528931651970   -0.50512678419697   -0.42481040451981
H           1.02900366067208    0.72288579271710   -0.75952916331659
