    26
        -50.46651512  Gyration_radius:  2.5285215046 Dipole_moment: 2.403
 S          -0.60245624968482   -0.30826095426692    2.14507597946845
O           0.36785113022105   -1.35149879498545    2.34826891895686
O          -1.40492701329458   -0.56137178133460    0.93830243040093
O          -0.05282081431528    1.03455205000453    2.13725706250829
O          -1.61841003988976   -0.33626495632349    3.35832223472276
H          -1.85682507351162    0.58320380530443    3.42158295774145
H           1.06943815407383    1.23887002726814    1.02941214676888
O           1.77800082810051    1.30871249594402    0.33538378274958
H           2.34701715830500    2.02747207320683    0.61649401845189
O          -0.04533189584372   -0.42429125697417   -3.06229735463427
H           0.71052320219500   -0.41725253041580   -3.65095951722424
O          -2.22404192129421    1.63562339960755   -0.29992616920587
H          -2.97626240055604    1.33380612432373   -0.81230566078786
H          -1.92382499407837    0.86413243619732    0.22487744391234
O           2.24371468446305   -1.37617951311789    0.47483870206043
H           1.74891849028520   -1.47274495703658    1.31510961951359
H           2.31881826266769   -0.41300552896044    0.34637159413763
O           0.05167944855315    1.82126220762371   -1.76219469805784
H          -0.78935150773783    1.91188400516094   -1.27009888486956
H           0.73148323580662    1.69152733767157   -1.07813895732483
H          -0.06022349641526    0.48055773405926   -2.63016239974690
N           0.03200550170864   -1.87433847827896   -0.84095813471670
H           1.00896061748735   -1.77168463353458   -0.41779005734525
H          -0.21810993045384   -2.85169986183419   -0.94250830426242
H          -0.61921839500429   -1.40526976894914   -0.15538749896929
H          -0.01660699176479   -1.36774066027188   -1.76856926420897
