    26
        -50.47059109  Gyration_radius:  2.47619615058 Dipole_moment: 3.242
 S           1.25852897972870   -0.24221775975848   -1.76766414980810
O           0.89900144432214    0.99744092149741   -2.41011675495627
O           0.22797827198041   -1.26706424208515   -1.88047897286927
O           1.70977906658267   -0.07822744160612   -0.39055698518681
O           2.52460804238875   -0.80002102613099   -2.54657518027545
H           2.28613955157364   -0.62357968276743   -3.45028985064286
H           1.34343148569993    1.17183417879153    0.54253153188992
O           1.07494011091723    1.92528108105692    1.12808823848105
H           1.88352976907820    2.38976426773924    1.34852225239201
O          -2.05740745392680   -0.34999349715044   -0.87823856999063
H          -1.33050670175102   -0.74052354121317   -1.40671158516726
O           0.82842818155913   -2.42049923148956    0.41093709761113
H           1.44014335263116   -1.66351923048024    0.42960812443687
H           0.52065771717116   -2.38271173246543   -0.51459296039792
O          -0.81589566511888    0.95952026670747    2.76144773360366
H          -0.04974085364283    1.30996977196176    2.25787681086927
H          -1.51760342880998    1.60363753129228    2.64649767125201
O          -0.95113152796875    2.06804696099298   -0.81634167946188
H          -0.37675278743741    2.25720763274304   -0.06269129928090
H          -0.33469881546490    1.81898935100569   -1.53303229965979
H          -1.84617011302850    0.61165319218910   -0.85523365864013
N          -1.35482888801912   -1.32083388144589    1.42372106565059
H          -2.00946240733443   -1.95229480906846    1.87109577159021
H          -1.13385864147194   -0.50825446295396    2.04432699984247
H          -0.46301981082535   -1.83253261237861    1.15216267295286
H          -1.75608885885135   -0.93107200496109    0.49570798579283
