    26
        -50.46147031  Gyration_radius:  2.5905638335 Dipole_moment: 4.230
 S           0.30904549484703   -0.59007184858806    0.34474669613048
O           0.00317051658040    0.55697477853296    1.37659178678941
O           1.71844068265897   -0.89600246263625    0.39180612817130
O          -0.54850517649187   -1.70003950041005    0.79498543576439
O          -0.14615247718078   -0.10481031106385   -0.95076424571012
O           2.91430493911099    2.68892508141222   -0.39212670262455
H           3.80686636746225    2.96570591587174   -0.60463315789283
O          -2.14353399738129   -2.66402533643917   -1.16003906683928
H          -1.61436668794319   -3.03645785802336   -1.86697926157306
H          -1.51645926046556   -2.44335370187324   -0.44264869224954
O           2.39492739230418    1.27991332201236    1.82020691083383
H           2.60479438535200    1.92386907513848    1.10380200681505
H           0.89998218907944    0.95064558650949    1.63462378386476
H           2.62240868787618    0.40781812816464    1.46308881838454
O           2.33020239403424    0.50911905068243   -1.80934443296374
H           2.45144750406741   -0.14250375127294   -1.09907272565029
H           1.36791561850034    0.50925461828372   -1.91908593853994
H           2.69743035150020    1.95523582281348   -1.01682853072187
O          -2.75201854249954   -0.04781183466500   -1.25032472842364
H          -2.82069914216033   -1.00518613610828   -1.44395829566442
H          -2.83503630714787   -0.06353446127062    0.24007240035922
H          -1.77999675378858    0.11167295120869   -1.30254010270839
N          -2.59606125657779   -0.23637053882160    1.30137878335230
H          -2.19181930950400    0.60408952203367    1.71155197019474
H          -1.79190861568045   -0.95018192380852    1.23698107398662
H          -3.38437900651421   -0.58287417778687    1.83851009692663
