    26
        -50.47376048  Gyration_radius:  2.38794496208 Dipole_moment: 3.935
 S           1.76275902040162    0.40199305028578   -0.33608657120874
O           2.61684586893235    1.49971227292911    0.02366833618833
O           0.83877615492283    0.69548919436077   -1.41935663161289
O           1.08386003701671   -0.22772523157449    0.78926985996898
O           2.73202254003758   -0.74525175715028   -0.89445814141127
H           3.44133998062996   -0.23206373152491   -1.26623378499670
H          -0.31636173996775   -0.76006832388250    1.66660625253701
O          -1.01570688791274    2.27850743545989   -0.31860706816890
H          -0.34171295718517    1.86427752260219   -0.89082580335701
O          -1.15998496508696   -1.18789082245099    1.90583009460575
H          -1.03202204354596   -2.11439585748665    1.68222688914036
O           0.55800496362844   -2.60208291863411   -0.24382061455773
H           1.34508889133216   -2.94682074076185   -0.66895117867345
H           0.83575080354470   -1.75219786782649    0.15782388432172
O          -1.00600499010430   -1.15831932248938   -1.91973478954915
H          -0.57610069959600   -1.88301694968263   -1.42458066703506
H          -0.32496265907829   -0.45400057048672   -1.94277916981758
O           0.75267814988073    2.43838716120304    1.69050558677766
H          -0.52062430282666    2.52006837551939    0.49232277524518
H           0.68895360585996    1.67600496572881    2.27059153761333
H           1.53361713391984    2.26902152546839    1.13108748087291
N          -2.41665028208988    0.08275792478405   -0.08911555314510
H          -2.10481866009722   -0.39870799655145    0.78821173016491
H          -3.42563100780512    0.14848917034388   -0.15277927415551
H          -1.95465804976139    1.05038144831109   -0.12415916989723
H          -1.99445789506665   -0.46254792653745   -0.90665603983815
