    26
        -50.47376043  Gyration_radius:  2.38790613009 Dipole_moment: 3.933
 S          -1.45108377563180   -1.08296348237288    0.32106389785716
O          -0.97241874317847   -1.07468926958299   -1.05158466416850
O          -2.86102906214802   -0.84202253409102    0.45494850744276
O          -0.61399211135464   -0.25909621926438    1.18380662633604
O          -1.20647529465648   -2.57399749188809    0.85454373363229
H          -2.03339393872350   -2.99216420022687    0.63989434423282
H           0.65094605773822    0.88896385531405    1.49878830569729
O          -0.98311004525728    1.50452149377168   -1.76146712863931
H          -1.08518387381259    0.53475954963365   -1.71186759300640
O           1.51482367511935    1.34196376796565    1.51549651988439
H           2.13014016270731    0.67466098723104    1.83293858920070
O           1.66973631592573   -1.17452821426464   -1.36426919427167
H           0.69486338098968   -1.26047910743439   -1.41635598593062
H           1.88224549159262   -1.46573143238054   -0.45583857497815
O           1.57195362541214   -1.73974945251738    1.28355958890269
H           1.33350954958972   -2.65047735606817    1.46446483576003
H           0.72692363979961   -1.24368785479959    1.31165791098669
O          -2.43357844723020    1.79439240214986    0.47504898798413
H          -1.55333699308257    1.83887777163006   -1.03757247646425
H          -2.78823534227991    0.88572314697225    0.46710323629566
H          -1.87093965723135    1.83779638213395    1.25176126887461
N           1.56092000647688    1.43846492062613   -1.16089085842213
H           0.53887008163176    1.60337151842429   -1.44212128836688
H           1.74185047346838    0.40081438124778   -1.34671708435098
H           2.19204204021367    2.03653945616638   -1.68091299846126
H           1.64395276394077    1.57873698156415   -0.12547852601662
