    26
        -50.45880559  Gyration_radius:  2.60816908019 Dipole_moment: 5.791
 S           1.19478128520501    0.48296277598677    1.09416161623973
O           1.62550956098774    1.53535507242738    0.17261929040102
O           1.29811764023538   -0.82007962812537    0.49026594836273
O          -0.16996499305223    0.76387136567984    1.57565651594313
O           2.13335749479956    0.51631814758120    2.34074107463606
H           1.86542216504041    1.32575094756838    2.81990748526445
H          -1.19626748983462    0.78591309430016    0.38453429464534
O           1.21989394328853   -1.69325323461209   -2.31039819847289
H           2.02159290404689   -1.69278694083848   -1.77933510587851
O          -1.80735280329974    0.87433608610205   -0.40327605474085
H          -2.39584357007845    1.60010470235467   -0.18677464845542
O           0.65501019386609    2.44514764322077    3.40876776486814
H           0.13081537619772    1.96180793767028    2.73662891252588
H           0.29838010681760    2.19390630828632    4.26377652464408
O          -2.77792578801894   -1.70290257604506   -0.52421639140551
H          -3.19418894745570   -1.79323508951521   -1.38274252072819
H          -2.49501940195589   -0.77561411535561   -0.43775037075897
O          -0.25831719621750   -2.82255151705343   -0.48445948665337
H           0.24216088837006   -2.24503885467343    0.11624101256522
H          -1.18921168897665   -2.54688441018428   -0.41097750639393
H           0.58442563901399   -2.22659309991773   -1.75411061022601
N           0.43526087924153    0.77722253857527   -1.97679704318953
H           1.02871923271628    1.14167556684000   -1.15472170493732
H           0.55572749084051    1.35355910898085   -2.80286998072556
H           0.73392614117505   -0.24428951471437   -2.16199936085640
H          -0.53900904295177    0.80529767545728   -1.63287146667601
