    26
        -50.45880532  Gyration_radius:  2.60877260605 Dipole_moment: 5.787
 S          -1.44604104116836    0.14771147448475    0.86318559330524
O          -0.40268973868519   -0.68927393518589    1.39631688700991
O          -2.17004523182059   -0.52312927354995   -0.21758648419865
O          -0.92897667671877    1.44550215898225    0.39234707649050
O          -2.45978631282715    0.45067711205605    2.01060213578438
H          -3.01120595204928    1.17678768515074    1.65668626382395
H           0.08724185282320    1.25161867629092   -0.79163873797301
O           0.66431725041708    1.09908304705374   -1.59518965464442
H           0.46378179936445    1.82284379451265   -2.19176711563402
O           1.14573881862589   -2.88849629106925    0.21139159266104
H           0.46833179150590   -3.02663835804277    0.87974761902971
O           3.13321730156027    0.96384574240989   -0.37732868308413
H           2.27307254550628    1.08558363887207   -0.81644801407928
H           3.73145719208754    0.58856404879016   -1.02520887219566
O          -3.21721358425574    2.66804239017729    0.76320252152844
H          -3.08373513171465    3.44947885365978    1.30439691405743
H          -2.33127556524160    2.39671911583610    0.44435887828181
O           2.30315377064273   -0.91602908125693    1.46125827687337
H           1.74827204480589   -2.21655551586697    0.63977782260325
H           2.67983248131475   -0.19388232426729    0.92782855720505
H           1.38866062526464   -0.65432108790539    1.66159257279847
N          -0.20001514129787   -1.50224455987330   -1.54875002067586
H           0.29207868871015   -0.62052837469118   -1.76924598074923
H          -0.42171895020187   -2.02547773529094   -2.38909304496640
H           0.38720862602447   -2.09250409475642   -0.86055121682401
H          -1.09366145266986   -1.19737709652346   -1.02988485643640
