    26
        -50.47194229  Gyration_radius:  2.49769948535 Dipole_moment: 3.374
 S          -0.69527833553275   -1.99773314901377    0.64406487681440
O           0.74435086897427   -2.06307905334703    0.48798246197835
O          -1.33635716669793   -1.23971288183106   -0.42497455089738
O          -1.12140661290329   -1.54647951784891    1.95456319225893
O          -1.21132938101567   -3.48868908589851    0.49919203078180
H          -2.11747974978677   -3.41447985359169    0.77941476809870
H          -0.73041420501267   -0.03596525824494    2.26892780073899
O          -0.32424075985866    2.71345032929897   -1.59286786449553
H          -0.29312039450178    3.59434603705173   -1.21778030453162
O          -0.44813542476011    0.91050910828535    2.38602049154563
H          -0.57861776507877    1.11039350448302    3.31443464516959
O           0.67050590532344   -1.45142549525312   -2.08801230243281
H           1.04653266459680   -1.94165790312527   -1.33722910401700
H          -0.25276592165560   -1.33155600731512   -1.78920833440974
O           1.85724837257197    0.27544937223008    1.08043771827063
H           1.58501389885980   -0.65956702617758    0.96553047233442
H           1.14569462193147    0.67175040605136    1.61559633483802
O          -1.85089081779117    1.34999755081104    0.03274256190604
H          -1.79356618449793    0.40465350975966   -0.20693960953770
H          -1.44675545702907    1.40329303863471    0.91264838157292
H          -0.99271510889523    2.20952865524410   -1.05099720763217
N           1.64476195660058    0.92192010349213   -1.46084413748032
H           2.50886231616899    1.17647623632608   -1.92586835816208
H           1.26847810858327    0.00154578024044   -1.84695762253699
H           1.80451090875103    0.75502560764878   -0.41872231929805
H           0.91711367265920    1.67200596208961   -1.58115402087555
