    26
        -50.45880517  Gyration_radius:  2.6090046178 Dipole_moment: 5.785
 S          -1.23252699985147    0.48215726557442   -1.05167998819328
O          -2.14886822026559   -0.47541837069724   -0.43063933279093
O          -0.07299341647660   -0.17594925727576   -1.59547028380423
O          -0.87000332232105    1.53248948039645   -0.08282924152037
O          -1.98687358195940    1.18457880616599   -2.22371548527252
H          -2.62473400485736    1.77615362112482   -1.77682515089326
H          -0.12330643135162    0.92034041657236    1.15817105770087
O           0.27403609877349    0.48965693464454    1.96969542359667
H          -0.07091303209195    0.98628366073221    2.71422299486154
O           1.25572287709705   -2.70502063624408   -0.89938252876309
H           0.74151799727385   -2.59038330926741   -1.70377768238840
O          -3.06513500272001    2.89967537144120   -0.50831681479817
H          -2.84464773672080    3.80914669713269   -0.72185824230630
H          -2.25934146541975    2.50360105192788   -0.11593224882468
O           2.94920691299738    0.65504417649314    1.32695857010988
H           2.01169613395308    0.66317866526645    1.58867628265735
H           3.40569231793743    0.06324167288241    1.92686040067563
O           2.59013949584908   -0.48162284960469   -1.15930082694913
H           2.82170503002495    0.00938180061639   -0.35104785862197
H           1.91406726552700   -1.95499976322952   -0.94645636718981
H           1.73151087805458   -0.13119354358774   -1.45067789610715
N          -0.47790772415332   -1.91573035778228    0.89030703818710
H          -1.24955112190934   -1.42168296966179    0.32344360690633
H           0.26093216684652   -2.27208288865981    0.18751336482980
H          -0.07227026230388   -1.17543504450071    1.48663899936858
H          -0.85715486193466   -2.67541061046483    1.44542220952743
