    26
        -50.45821268  Gyration_radius:  2.4804473095 Dipole_moment: 9.142
 S          -2.06486810833560    0.17011996138953    0.82650984571051
O          -2.40773923323138    0.95311162851401   -0.36909994388353
O          -1.29617347217407    0.90020728262916    1.78534980350985
O          -1.45289573057693   -1.09691928970327    0.41995671337482
O          -3.44889375481343   -0.20488873963623    1.49191582700208
H          -3.92325085585734   -0.58644813695716    0.76103536244396
H          -0.74990446912886   -1.35994746757190   -0.99245745712375
O           1.95971871907788    1.39319068448980   -0.32176543857720
H           2.79672347348762    1.80775340292920   -0.53379588482925
O          -0.30927874575278   -1.43775746287845   -1.88233698344231
H          -0.67515557053305   -2.22209029531192   -2.29261052399935
O           0.95018228958625   -1.65903677686422    1.66861822151493
H           0.03652186166644   -1.54328564518044    1.36120501153391
H           1.16687668468462   -0.83445217841205    2.15204148573656
O           1.32425204838151    0.90899296653744    2.45258392374938
H           0.35950409669152    1.01766886034203    2.42549331476778
H           1.63512513882304    1.25409416456272    1.60563043981589
O           2.16592250833989   -1.15005990882582   -0.59127731119496
H           2.11290577013922    0.39205790149076   -0.39503495197956
H           1.84715138176113   -1.45533998373318    0.30263540894310
H           1.45177294566170   -1.40213462743903   -1.19363761752153
N          -0.28366256872568    1.25342547142716   -1.75490779974261
H           0.56499956057206    1.45818610183289   -1.16616517526902
H          -0.20257188212936    0.28203396514303   -2.10814296999608
H          -1.17978419550170    1.24003856873899   -1.13923226827383
H          -0.37747790211345    1.92147954248760   -2.51251102227042
