    26
        -50.45899824  Gyration_radius:  2.54205764874 Dipole_moment: 5.958
 S          -2.09970114386046   -0.26566576785422   -0.68142841959196
O          -1.56806572069611    0.77552716662247   -1.53762503384523
O          -2.36061892305504    0.21736160063069    0.67241545159209
O          -1.31257553096195   -1.48491706735592   -0.66803135313213
O          -3.50633500132957   -0.65308847069940   -1.30399490950544
H          -3.76062441741758   -1.46510580290980   -0.87444521603238
H          -0.43489469980549   -1.34263097692194    0.70217128295367
O           2.63237112027089    0.34248347671267   -0.73992339916737
H           2.86295654880766   -0.51469058958324   -0.34235382140647
O           0.01733092066953   -1.17161718058530    1.56206590310044
H          -0.69778417871479   -1.07658616327090    2.19488010448498
O           1.29471119813624    1.22408484286116    1.29554084231149
H           1.88366972832886    1.01590787083228    0.50935594014129
H           0.90671727904884    0.35758331103437    1.52994554009734
O           2.64272138700043   -1.93360644351565    0.84193992253069
H           1.71321101350863   -1.84626508710034    1.09792662263942
H           3.15642975514374   -1.87274675401448    1.64887190593412
O           0.65211736014613   -0.49213152354433   -2.38417798487266
H          -0.12431783105709    0.08166325226012   -2.27873278673507
H           1.99262164594396    0.12215632782996   -1.44899875843694
H           0.37538143638617   -1.32782884830354   -1.99332165385077
N          -0.85406563793484    2.31272455649229    0.44786924810487
H          -1.05888051424939    3.27262305618724    0.70156758690339
H          -0.91263244012809    2.14420690611669   -0.57019612769527
H           0.12882319063528    1.95758765474757    0.81741901814749
H          -1.56856652480448    1.62297065333103    0.80126010532814
