    26
        -50.45821268  Gyration_radius:  2.48047532691 Dipole_moment: 9.148
 S          -0.94055715879581   -0.18420028755900    2.01441282728706
O          -1.93861225233635    0.79614261342467    1.56401450825846
O           0.32773225039949    0.39579471911803    2.32809104356500
O          -0.86536991357870   -1.28209273493417    1.04775575535810
O          -1.53468437252842   -0.80761364705297    3.33998991726400
H          -2.40419953499791   -1.07453796741516    3.06146545991397
H          -1.32566302761296   -1.18623878318030   -0.48101816411976
O           1.32644509328400    1.59460300537069   -1.25879032376001
H           1.82813122551288    2.11491606831455   -1.88727885480939
O          -1.61111060973165   -1.03995563700701   -1.42402942557255
H          -2.22132833938652   -1.74887089426678   -1.63028982849883
O           1.69611302979155   -1.87765539600828    0.19143439166449
H           0.82780430927431   -1.78113865495757    0.61497284321120
H           2.24543248480362   -1.15438560115995    0.55993631020527
O           2.69860299484593    0.49662868238509    1.03179111736069
H           1.98199667238247    0.52388804706922    1.68679373397747
H           2.38019684264131    1.03442540531205    0.29529636172509
O           1.09820309980642   -0.81108052725548   -2.12120364263850
H           1.44526960793102   -1.32023345883911   -1.33742247865348
H           0.14826444285563   -0.99520224666320   -2.11862581106094
H           1.31150346251189    0.64705865441167   -1.62364449715890
N          -1.29698210165946    1.55876974195194   -0.78742237233720
H          -0.26129351260766    1.71097219452904   -0.90119159093974
H          -1.55154444782493    0.69119754502490   -1.29509501588739
H          -1.53783285891632    1.34138671646389    0.25031477288588
H          -1.82651740606359    2.35742245292275   -1.12025704724112
