    26
        -50.47194231  Gyration_radius:  2.49789798712 Dipole_moment: 3.376
 S          -0.38165203316661   -1.25760058565520    1.77917467870222
O          -0.65884424722103   -2.06092481844998    0.60484431231379
O          -0.88056179626953    0.10719457096833    1.64939882984109
O           1.00807537429233   -1.28628843207345    2.19200508689325
O          -1.20820086656868   -1.91965346234221    2.95769388456316
H          -0.86107890368679   -1.47050105233634    3.72108831977383
H           1.99966816685856   -0.61485946846605    1.14323348298567
O          -0.00442002833923    2.75798930675456   -1.55090691258630
H           0.75545975928973    3.17692852910800   -1.95681119755661
O           2.54900705021674   -0.18001063519742    0.43737019170084
H           3.46102115047382   -0.38101014422486    0.65368556120226
O          -2.57664072836606   -0.45228658368087   -0.26065095918312
H          -2.19940071520075   -1.33908379562225   -0.13134010331082
H          -2.18827678985246    0.02806362963620    0.49730597066623
O           0.92832776564595   -1.36039190312437   -1.40729009625134
H           0.38570329240487   -1.79431154641014   -0.71531083411652
H           1.64243372201555   -0.91740653819064   -0.91378035314327
O           0.83996299872013    1.97604272881311    0.79597445989469
H           1.59622660210112    1.38835578199505    0.64403392684709
H           0.26463327010835    2.55547231120122   -0.61231557930695
H           0.15907365912904    1.40141039315376    1.19667657072604
N          -0.93135775880526    0.33702451991835   -2.16991510066551
H          -0.12549215308969   -0.33337743150579   -1.96857400541838
H          -1.27376013141976    0.22141285129822   -3.11706664529833
H          -1.69303970193214    0.09386177479875   -1.46391345251398
H          -0.60686697734342    1.32394999963482   -2.00461006675818
