    26
        -50.45899808  Gyration_radius:  2.54234403282 Dipole_moment: 5.963
 S          -1.90451382319103    0.24863942916423    1.12136251025115
O          -2.43133694512124   -0.39709106846074   -0.07855670113102
O          -1.45676527612480    1.60166283237995    0.85921150186136
O          -0.91997514204213   -0.58599825794138    1.78497679177396
O          -3.11934669519644    0.38980438235902    2.13151167436059
H          -3.28151723237657   -0.49017198610997    2.46002886591736
H          -0.27770686276687   -1.44883534090993    0.55587464442629
O           2.60416987443117    0.84209055265755   -0.32729903676367
H           2.92900264808362   -0.03248192694802   -0.05248913221788
O           0.01506911061122   -1.93657846510110   -0.25008691943977
H          -0.78438802350761   -2.34728128564704   -0.58630890673757
O           0.86256391135809   -0.04698800275720   -2.02611511245692
H           1.58178179126139    0.39022255546535   -1.47842065433440
H           0.60909470112228   -0.82754009075538   -1.49437755897278
O           2.80840502075024   -1.87524913861562    0.18050157428822
H           3.18686518010547   -2.40015414164326   -0.52668542745860
H           1.85212572670402   -2.02384514574377    0.15468451370366
O           1.05059461650790    1.39125523502540    1.81893508633732
H           0.17601002153898    1.69172434937580    1.52212214983280
H           0.87914246880086    0.52258171123687    2.19807393037444
H           2.11773846772099    1.18191122579667    0.45275525113055
N          -1.31065276571501    1.25967056117203   -1.72469307855328
H          -0.33986746156506    0.77419110889140   -1.94960769661889
H          -1.71800423275910    1.73742481184838   -2.52063197758891
H          -1.93056615996722    0.50724129772563   -1.32372538977428
H          -1.19792290867000    1.87379481752282   -0.90104090224673
