    26
        -50.47196970  Gyration_radius:  2.42907556651 Dipole_moment: 5.395
 S           0.86590499476918   -1.12551130901220    0.11212734443409
O           0.74301755731097   -1.70146594132198   -1.20080362667707
O          -0.31257002845439   -1.38211636531395    0.95365661939278
O           1.06558917625722    0.33736754387903    0.01617036814353
O           2.10018723618727   -1.72180017835535    0.81057159208539
H           1.91984532958981   -1.60946417870626    1.79036124245167
H          -0.18316903582497    1.49813266500068    0.06666682378639
O          -0.97323355372444    2.06225159699674   -0.07784136384313
H          -0.80768814651506    2.49260109028494   -0.92189580882590
O          -1.20984031417993   -0.80602080842925   -2.73188198505810
H          -0.51761900757912   -1.37567505111434   -2.33325920414270
O           1.19556067087196   -1.25761453111273    3.16528509353138
H           0.34878950205987   -1.39302928173721    2.71209944567168
H           1.32077412174139   -0.29013149843786    3.20843541892066
O           1.32109300460444    1.35187628821786    2.47448629516364
H           0.65056464440881    2.03746779927999    2.49312760552492
H           1.36195452217805    1.03326661463278    1.55141460899600
O           0.58885346273545    1.21313256241668   -2.47580960855634
H          -0.72573388496673    0.02344311930032   -2.90965638415157
H           0.86876802984348    0.84575851387969   -1.61146869916373
H           1.33487863799761    1.08721333075632   -3.06406868708476
N          -2.23187786958294   -0.26437050245790   -0.39993826866976
H          -1.55519682529337   -0.81365280297614    0.21088131783731
H          -1.97749521574447   -0.51215661797966   -1.41685781606015
H          -3.19783632700105   -0.47551350638857   -0.17583322069214
H          -1.99352067158634    0.74601141838693   -0.24596908309946
