    26
        -50.47196969  Gyration_radius:  2.42906241918 Dipole_moment: 5.394
 S           1.25658420167827    0.41875535757625    0.52559193895759
O           0.28107039996046    0.44343702166705    1.62591546485180
O           1.40786783084969    1.70214510665461   -0.10734834532983
O           0.82551746451628   -0.59497690553223   -0.46222010916535
O           2.61574396373838   -0.02736665979491    1.09195201811985
H           2.38915023214801   -0.67659140878233    1.82149475517900
H          -0.79528082431078   -1.01625465888550   -0.78681959847135
O          -0.71628377947626    2.71506145357731   -1.29980008033799
H           0.14458162748821    2.62297692148413   -0.83827151546844
O          -1.74673464248332   -1.05164725322840   -1.02533143003653
H          -1.76353419101014   -0.85925333655561   -1.96753259038588
O           1.56134938796449   -1.56543621630596    2.85298447153016
H           0.85730019892886   -0.90002768005982    2.80525990362253
H           1.26802839745091   -2.30227653755793    2.28329561441744
O           0.59033338518185   -2.96279608351394    0.75323125863305
H           0.77667123102077   -2.16193603861859    0.22488651398001
H          -0.30596280313504   -3.22599581919407    0.53566758113272
O           0.06633907344527    0.56357607559446   -2.76138628730402
H           0.46065457874552    0.16806489668747   -1.95609429176539
H          -0.62152329025754    2.09762083340391   -2.05060996697550
H           0.80578582924068    0.78330302542574   -3.33006561271590
N          -1.90837263269781    1.17599855870642    0.42815752444155
H          -2.70044576989931    1.49582903006904    0.97423874623646
H          -1.07359087469204    0.93840272628497    1.04411732524350
H          -2.11791182736644    0.30108342089633   -0.11226062709053
H          -1.55733715741004    1.91830415998586   -0.26905266130553
