    26
        -50.47196981  Gyration_radius:  2.42900930981 Dipole_moment: 5.396
 S          -0.62556360851038    1.27022904825399    0.15617763912083
O          -0.37445409162534    1.06790053824578   -1.27871113780610
O           0.42203328178338    2.01766730864905    0.80002537887476
O          -0.78251507664141   -0.05385925752067    0.79739377649374
O          -1.95532446547813    2.02771566659713    0.31413422460838
H          -2.52685308801774    1.70389261017886   -0.44316524144129
H          -0.00441507127551   -1.48357839011547    0.28722220160697
O           2.82969161976561    0.93950444491411    0.82778312954775
H           2.09268464884558    1.58697760164635    0.84043495873851
O           0.62218115691098   -2.19514163532732    0.03338374724355
H           1.07717945490664   -2.41490489790337    0.85171556959121
O          -2.75655843163785   -1.38577703516928   -0.41391451514112
H          -2.33387915221745   -2.20923804148631   -0.66540075504803
H          -2.11588907348861   -0.91009560904912    0.15041948458822
O          -3.00749245347112    0.94451181411621   -1.75914294417941
H          -3.18157518874447    0.04801967592528   -1.41320616496295
H          -2.08220038711986    0.93853412350853   -2.04995584401874
O           1.26452664292132   -0.57069795314764    2.45475024574786
H           1.16107354271452   -0.15905147301750    3.31398318523952
H           0.47735712312852   -0.30211861453105    1.93656431522248
H           2.56628043791737    0.30436284293813    1.52141053910998
N           1.87150401151373   -0.24385245506579   -1.28331263153955
H           2.40660848595229   -0.32687863014064   -2.14041180723154
H           0.99412086822552    0.34281061311576   -1.42029190786853
H           1.53668232347772   -1.17176843421651   -0.92526739590981
H           2.42479651014904    0.23483612859364   -0.49261807063156
