    26
        -50.46970022  Gyration_radius:  2.58939563646 Dipole_moment: 2.415
 S          -1.23277043868848   -0.69499548411053   -0.85262705514293
O          -0.41866167269253   -0.28644967036152   -1.97571274338755
O          -1.43377425267904    0.40868723946604    0.08373272129244
O          -0.67386301019201   -1.87077620081485   -0.17584391025599
O          -2.65388868457406   -1.08421482375896   -1.36531575094226
H          -2.50601441173890   -1.94300423316250   -1.80731748520847
H           0.74141984317673   -1.45196726942388    0.46450401439947
O           0.87277313450557    2.86428582976130    2.22099199071183
H           1.77104661043048    2.83698187243570    2.55369504018815
O           1.59863943623099   -1.13882259565101    0.85205464807358
H           2.10015302488832   -1.93000499205554    1.05684434942118
O          -1.73436119185352   -3.49763048410046   -1.93861616856366
H          -1.14471270426415   -3.09265547255891   -1.27086177356171
H          -2.19092233946125   -4.21888723798505   -1.49938663757083
O           1.95666653322641    0.58666519874553   -1.26379228523726
H           2.08646731485209    0.00303199503710   -0.49626084339346
H           1.19422444759664    0.18894400363631   -1.74070683805958
O          -0.07465438887700    0.42073899050647    2.44219246828196
H           0.46100721049890    1.99189766826237    2.46212516031103
H          -0.75775894375486    0.38403980228011    1.74942529703586
H           0.63557951637768   -0.14821794753465    2.10630506724623
N           0.28115469381175    2.36704996600427   -0.32892704941718
H           0.00600400154207    3.11922795289121   -0.95012210080847
H           1.08132193909958    1.78866559055551   -0.74185536509032
H           0.54498224421572    2.72186510069990    0.62619432783211
H          -0.51005790167954    1.67554519123748   -0.21071907815204
