    26
        -50.47398746  Gyration_radius:  2.43803841808 Dipole_moment: 2.205
 S          -1.92297142862522    0.05732574282068    0.03000628884276
O          -1.22641202369511    0.85886969308221   -0.97489508655462
O          -1.19379798780732    0.05348327700993    1.28319063591429
O          -2.28121340205039   -1.25385849757581   -0.45853291693186
O          -3.29024885846961    0.79988573455482    0.31800468115063
H          -3.84479558330481    0.38880399316495   -0.33515004825825
H          -1.02192710352205   -2.28784725301987   -0.63413626483140
O           0.36325486405899    1.77712247577727    2.56399338748137
H          -0.36048727841969    1.19243293425148    2.25824489464479
O          -0.20444833863088   -2.82133273390739   -0.77421957403205
H          -0.49498344344317   -3.70864926299011   -0.98991613165167
O           0.64334898468628   -0.65343776348847   -2.29792797595288
H          -0.09440030418250   -0.10086343629370   -1.99017367876601
H           0.46118057536834   -1.53942130776410   -1.94778769529431
O           2.49789269686997    0.20831521149067   -0.59592176856032
H           2.20941893277533   -0.39548266736667    0.12616894469977
H           2.01117049843167   -0.12492167052033   -1.38614855508678
O           1.14003067261330   -1.30941751015059    1.13682193752695
H           0.99563044851673    1.19559670320234    2.99346192569047
H           0.30052841918992   -0.83923878281822    1.28769938333671
H           0.89553142246213   -2.05593289170982    0.57095514753075
N           0.88833728078129    2.14653726456457   -0.03866545996129
H           1.67051130308657    1.42543296243010   -0.28443007720866
H           0.00089877969389    1.74500926324365   -0.43618443858224
H           0.77886844737690    2.17895545464340    1.00327207036409
H           1.07908242623797    3.06263304737509   -0.42772963550062
