    26
        -50.45899863  Gyration_radius:  2.54196837303 Dipole_moment: 5.939
 S          -1.58698071085734   -0.47895267680546    1.48175954101332
O          -2.22108681703142   -1.02857473614469    0.28596418198932
O          -1.53819466466034    0.96917308911668    1.45477654476861
O          -0.30804353861233   -1.11271232135225    1.74437917672772
O          -2.52503800020946   -0.85126707900726    2.70561702964508
H          -2.38807044170054   -1.78217768881081    2.85799894013096
H           0.20291286253728   -1.54236639747780    0.25356444083947
O           2.18542770826836    1.56596633216892   -0.60799929038019
H           2.75738353079509    0.77924350573231   -0.60285330854753
O           0.39875852397773   -1.78543692964988   -0.68222513794303
H          -0.34209915548117   -2.33446798804516   -0.94790334674218
O           0.34107863574244    0.53931164201283   -2.10916611016007
H           1.05006556048535    1.05604748887297   -1.62055375092465
H           0.40800177067603   -0.35995286954989   -1.73090187157138
O           3.12287913772447   -1.03690092693016   -0.77069140966878
H           3.43733399491882   -1.31252178867478   -1.63316582665446
H           2.24801175170046   -1.43474342943278   -0.65430069547818
O           1.10444333288446    1.29378115175720    1.85767422955353
H           1.23465345871960    0.36029563631312    2.05590359417451
H           1.83397120170585    1.62184835227721    0.30518784667174
H           0.13917215065892    1.38750584092605    1.80455768949535
N          -1.93799538836718    1.12894589709136   -1.11978380175290
H          -2.62167486634231    1.60697174508791   -1.69578892667903
H          -0.96389410801492    0.97410254850924   -1.62574324075892
H          -1.77633907562012    1.59865952065814   -0.21333128338026
H          -2.25467685385135    0.17822208135383   -0.79297520439723
