    26
        -50.46668524  Gyration_radius:  2.39501951178 Dipole_moment: 4.520
 S           0.14026580202912   -0.76806185808217   -1.42625949485690
O          -1.00798333058470   -1.17552059560159   -0.60524497453586
O           1.26659662302909   -1.64887491561524   -1.30648034875006
O           0.46949739223269    0.62990773512671   -1.15562964555362
O          -0.35836610495568   -0.82454398890345   -2.92025395736170
H          -1.14419054705649   -0.26269600344808   -2.94235299000082
H          -0.66935234774909    1.73342730804360   -0.53204941020112
O           1.69289131373520    0.87769880437341    2.27254829229744
H           1.77698008573677    1.83269772099520    2.29928741150769
O          -1.46707379871955    2.06611801349404   -0.06584897381725
H          -2.19474633033136    1.79473807658232   -0.63996458649981
O           0.97076100760356   -1.93779018451151    1.38538359581045
H           1.85697100550846   -1.84293531447935    1.74067311638710
H           1.06288070572949   -2.02039744112845    0.42346576294976
O          -2.71101658564318    0.28413514383648   -1.88781855090107
H          -2.18738104449894   -0.32091324946454   -1.31018794377108
H          -3.51213996425914   -0.18756229759079   -2.12309138671687
O           2.84310628357629    0.29466783436150   -0.04324334840959
H           2.05085199190415    0.58930366352670   -0.53537798948610
H           2.20237463589365    0.59238543338435    1.47421478087380
H           2.97733021686147   -0.60332811378088   -0.36220668930148
N          -0.82740047074619    0.18139030432819    1.67881561354158
H          -1.20715417343329    1.03144311132623    1.17739127934654
H           0.17201497785577    0.36587935118598    1.97409693303106
H          -1.38670449320642   -0.10395799656378    2.47514715672581
H          -0.80901288067797   -0.57721052146122    0.95498634767380
