    26
        -50.46680119  Gyration_radius:  2.60695969761 Dipole_moment: 4.779
 S          -1.04723131367800   -0.06491839011006    1.23683865057770
O          -1.98916671469338   -0.32803564547641    0.12891709524302
O          -0.16968271810721    1.04291079240061    0.91616494986241
O          -0.31554154064696   -1.27240942094352    1.56878227348180
O          -1.90030651267593    0.36391303516181    2.46798792347961
H          -2.60614709563217   -0.31177392172366    2.51181804765115
H           0.69023856358919   -1.74558871563844    0.45641209733252
O           1.29443883748590   -1.95860356685227   -0.30996512984796
H           1.48559353745758   -2.89520537346314   -0.24155990272845
O           0.38969160036407    2.04786096563409   -1.52881102106514
H           0.13269996950176    1.96376438185734   -0.59124969419707
O          -3.76378293726323   -1.37834290748013    1.75971991402280
H          -4.62526911339559   -0.98088927029719    1.61342938642106
H          -3.22065270806399   -1.16436749804534    0.97474596115638
O           3.02748220018880    1.93801712614418   -1.23580890680292
H           3.47868140442175    2.71953691866771   -0.91402638637625
H           2.93362218679073    1.33643241603395   -0.45509807682633
O           2.45434359724893    0.38410424142609    0.82897225115422
H           1.37594043039922    2.10331740975628   -1.52644036441332
H           1.54361221772162    0.67239168882225    1.02766295395237
H           2.36362974611168   -0.51895077600752    0.49962688631171
N          -0.30307781831226   -0.41097640386271   -1.87113278282839
H          -0.61856439448767   -0.71418648042070   -2.78593348457433
H           0.04279982076478    0.62481502540374   -1.87633093005144
H          -1.08997391360201   -0.41817409340335   -1.16118580960332
H           0.43662265844740   -1.03464152713044   -1.49353588134258
