    26
        -50.45718461  Gyration_radius:  2.52092474252 Dipole_moment: 5.139
 S          -0.76737297485977   -1.35763989235535   -1.48235055715588
O           0.53250060161114   -1.31125763113000   -2.15514601182076
O          -1.42776056591834   -0.08104508504134   -1.42807948773054
O          -0.64683490749214   -2.00035032140000   -0.17980912290031
O          -1.67361258487746   -2.31313139092530   -2.36081339656104
H          -1.17286994422148   -3.12147506946763   -2.33375452420308
H           0.47359012017153   -1.27426666118964    0.77585799057583
O           1.07059606058316   -0.78193292494038    1.39013019561266
H           0.65638078434132   -0.93382563077819    2.25083433470857
O           1.51828340665206    2.64724357347916   -0.76618632188425
H           2.06529789215015    3.36841725417774   -0.45162485974288
O          -2.39588576119791    0.96771088209685    0.75981059198134
H          -2.06640811156521    0.53432832685692   -0.06455170108850
H          -3.14541220889036    1.50187490405516    0.49372361858573
O          -1.48487246304513   -1.17884529080326    2.40768832543414
H          -1.93689092848495   -0.37855661602682    2.11093045727101
H          -1.40967272847440   -1.72257392157434    1.61267269736184
O           0.12611046388735    1.83655261088884    1.27813279302293
H           0.87977083745948    2.44342942769183   -0.02665974432305
H          -0.82884858025449    1.69020890904715    1.14491576907130
H           0.48847613197188    0.94450547876518    1.42105815344862
N           2.25704454098377    0.10933081130817   -0.87999781239562
H           3.20515114898016   -0.08813451665370   -1.18154752959053
H           2.10175908977814   -0.19550166064562    0.09425328929029
H           2.03127993318757    1.14239590085958   -0.94948408340666
H           1.55020075753681   -0.44746144629457   -1.48000304355157
