    26
        -50.46147040  Gyration_radius:  2.5907522568 Dipole_moment: 4.233
 S           0.44107763592648    0.58677061784759   -0.14577952048454
O          -0.98070135242139    0.77838157929113   -0.79063601623987
O           0.40385483291403   -0.69174060348006    0.55034830426404
O           1.43807139472623    0.65695247232994   -1.18655550036156
O           0.53138684627163    1.68747685735144    0.82918878744062
O          -0.04654116249406   -2.18503532004445   -3.33264863413183
H           0.35993868826140   -2.61201671484435   -4.08820212765613
O           1.13605801682095    0.84541938947843    3.32288616900851
H           1.03090002409930    1.22762392417998    2.42873058657156
H           2.00417652452463    0.43963849144446    3.33543392641557
O           1.75463049755322   -1.99917085913949   -1.37735573433860
H           0.61165734050675   -2.23939919678239   -2.59826041570187
H           1.97158064183284   -1.05915367010484   -1.49229005495965
H           1.25448624477233   -1.98963343269445   -0.54809487104620
O          -0.31240604050482    0.47335304197611   -3.21969735877248
H          -0.85478256930447    0.66675166420315   -1.78945007719194
H           0.58093357675885    0.66954740562071   -2.89828076832988
H          -0.33331238381981   -0.50087771910226   -3.36892523310134
O          -0.99708687065761   -0.69240853922048    2.76828734866854
H          -1.67722302787650    0.52561579322975    2.23761673606579
H          -0.53001067152633   -0.92912750950383    1.93228045409102
H          -0.28488417655965   -0.28239274883949    3.30061418959102
N          -1.87840961109082    1.45689380413728    1.68461299673261
H          -2.31602253294877    2.17421638203791    2.25383724008249
H          -2.41421535904201    1.25595958051214    0.84171955759854
H          -0.89315649668686    1.73635534017900    1.35062001571655
