    26
        -50.46592469  Gyration_radius:  2.50505256626 Dipole_moment: 2.926
 S          -1.16156016075509    1.51575787652005   -0.36775468957046
O          -1.11991064097177    1.02910353351862   -1.73236383702502
O           0.06972009207615    2.13268878725677    0.07723202617344
O          -1.62334815887608    0.49444052175857    0.56741511681654
O          -2.25478903265838    2.66025404064875   -0.34006123330280
H          -2.98925233645591    2.24432422184702   -0.77898175549253
H          -1.21140696534723   -1.10422849964405    0.11773164937561
O           3.24965864882867   -0.31135888503782    0.20442792034113
H           3.53213138053744   -1.22414207335288    0.28123056053172
O          -0.80431771427531   -1.94729459875156   -0.16271239712742
H          -1.26923471140212   -2.15140826616171   -0.99148558250592
O          -0.37672583330224   -0.78971459141057    2.55308327321597
H          -0.33198120966930   -1.63765369326533    2.09775943853734
H          -1.00495907730505   -0.26436905131039    2.01749223177240
O          -1.92634863845565   -1.40261384942975   -2.59790745151877
H          -1.71329066081684   -0.48771030199379   -2.32983058005833
H          -1.43458809231558   -1.55474368658291   -3.40677140057499
O           1.12017595695377   -0.46692695613682   -1.31988504584412
H           2.54893437448381   -0.30336441662245   -0.49561352653524
H           0.55033364490462   -1.15131324314840   -0.90587508704188
H           0.50999658877823    0.24053027082553   -1.57346071333733
N           1.54507431391828    0.89919458115761    1.84078668970962
H           2.31863137619457    0.42691352165402    1.30223980527072
H           0.97280779832250    1.45783626919116    1.13791986952827
H           0.88797817884625    0.18043263752830    2.24998208625958
H           1.91627089869800    1.51536583080360    2.55540266246934
