    26
        -50.47071320  Gyration_radius:  2.41591825764 Dipole_moment: 4.132
 S          -1.99425601743171   -0.20146578649241    0.30822747246221
O          -1.58865975378340    1.10752447105751    0.76047527291390
O          -1.40056589010143   -1.29954850541434    1.05332635604316
O          -1.80106043442620   -0.36497129108206   -1.13387997097568
O          -3.55418662002320   -0.29829670259607    0.56148094817383
H          -3.71472937063872   -1.23263884600853    0.48642859322904
H          -1.17943846520674    1.06253675692047   -1.66929907989322
O           2.11162745972074   -1.21252184323281   -0.68085331927007
H           2.80585196366718   -1.73429118656484   -1.08471319227064
O          -0.75986008063730    1.95329310832310   -1.70904151326395
H          -1.18398232930735    2.42046858931608   -0.98047607596476
O           1.10453974340019   -0.95548730396019    2.00436810215057
H           0.16941363864033   -1.13999988938819    1.79272608833991
H           1.60480564843154   -1.17292440120347    1.20655612370842
O           0.79089079394710    1.66200392076827    1.81960988907593
H          -0.16207541831381    1.60609751439287    1.60350489268802
H           1.01154507021483    0.75286514934100    2.13307069711735
O          -0.16851772632826   -2.40452414670986   -1.03784880264794
H          -0.48182924241466   -2.48030772818227   -0.12306700712722
H          -0.75865795927058   -1.70671769034072   -1.38621863229341
H           1.25396365482796   -1.69326236502501   -0.87651679321204
N           1.60434547120961    1.47186986708162   -0.62876973467326
H           2.35743685799484    2.08244488570528   -0.92486155066879
H           1.35466939145834    1.62749976769707    0.42243201500496
H           0.71097048327361    1.67581024032674   -1.17046090043674
H           1.86775910109682    0.47454341527064   -0.74619986820957
