    26
        -50.46794309  Gyration_radius:  2.46396052721 Dipole_moment: 2.581
 S           0.61279389451048    0.34581110689466    1.70562885077652
O           0.54469295932733    1.60602249364616    0.97762983895327
O           1.11698983932157   -0.72456897243802    0.85884314800439
O          -0.63022578920711    0.02896217285961    2.37048525886422
O           1.69918200703251    0.52685596722844    2.84306543229321
H           1.22078925543310    1.00095675339671    3.51541706240322
H          -1.23774568992336   -1.31853260576429    1.49799841932520
O           0.52575728700559    2.47689226571512   -1.56488945319822
H           0.69641780799159    2.33724722354700   -0.61401838874125
O          -1.40979772372589   -2.03239347233317    0.85413280327674
H          -0.55357643394847   -2.44145347925025    0.70837019557540
O          -2.14771932643200   -0.63868570599594   -1.32336375801518
H          -2.31319235262613    0.20194513949695   -0.85012954918436
H          -2.06565928500922   -1.30247951410366   -0.60558001225146
O           2.48901729779766   -2.01338228031123   -1.21549591432024
H           3.31186536629728   -2.47530457015324   -1.05084553066827
H           2.18524027386414   -1.67938979657600   -0.35926595370012
O          -2.05038543735757    1.48077498841838    0.36232538482265
H          -1.11149144421806    1.60326498099306    0.60001372309317
H          -0.35042695927253    2.86783393676864   -1.61135648850807
H          -2.45163892673162    1.12516626373309    1.15949140861883
N           0.39120763898744   -0.19845957105748   -1.68301892569464
H           0.96501966408076   -0.79348627190539   -2.27760589143752
H           0.51930530395171    0.81968452051977   -1.88411857781719
H          -0.65472371621162   -0.44301380284695   -1.71622055461506
H           0.69830449910492   -0.36026776045399   -0.69749252785899
