    26
        -50.46802881  Gyration_radius:  2.56356209017 Dipole_moment: 2.883
 S          -1.56512271626563    0.78861856247814    1.12771973368723
O          -2.53273063110991    1.09657113189588    0.10649309458818
O          -0.26504377183878    1.41641290671093    0.87779397203454
O          -1.40768633602423   -0.63129586274321    1.39883912917401
O          -2.11167776338328    1.42996989862273    2.47256255314088
H          -2.65012593816252    2.15095379951535    2.16172539822981
H          -1.10240456970180   -1.55839593156139    0.11554371599266
O          -0.76322167922830   -2.03531476072080   -0.68423804682526
H          -0.80533262330080   -2.97008236839325   -0.47655574684883
O           0.81365462190784    0.94328358156076   -3.12855141757514
H           0.88540430498492    0.69605816309030   -4.05092228435885
O           0.92788882777788   -0.08716854526414    2.71679129844855
H           0.16979230574049   -0.68128445888910    2.64791144325831
H           0.63339498486813    0.68864308041276    2.20712536268406
O           3.01044016262489   -0.74305347592075    1.18711157200486
H           2.29329360624674   -0.59829503919998    1.85240246627265
H           3.76208069768162   -0.23613227825609    1.49655997330524
O          -1.59071331358625    0.19751160064330   -2.24458827086331
H          -0.13194253489773    0.81187406221474   -2.88069154844097
H          -1.48456725219538   -0.72036174415436   -1.96599372250692
H          -2.00517008471144    0.64491399826786   -1.48208187531001
N           1.20814900317023   -0.12521391422207   -0.70430496103887
H           2.07462232575497   -0.35135742250633   -0.17115767142835
H           1.36235543985973    0.28231839996612   -1.64682279062454
H           0.62260117770500   -0.97481347547701   -0.79589695827601
H           0.65206175604679    0.56564012190255   -0.13677441873049
