    26
        -50.45568717  Gyration_radius:  2.56642764032 Dipole_moment: 1.974
 S           0.86827105623786   -0.36791280749269    0.36952823691099
O           1.53291883268275    0.91291471674003    0.52296069998820
O           0.20506218573614   -0.45413995866006   -0.95618218674793
O           1.95631590961696   -1.45976491257774    0.38719651556754
O          -0.09496062630394   -0.62441447048550    1.42423006243042
O          -1.91130186881954    2.59712732655321   -0.44971734305643
H          -2.76352188201361    2.15801766934227   -0.44036241412995
O           1.99197868032692    2.61214956887036   -1.37060967322156
H           2.78659217952692    2.34162820862859   -1.83425934280838
H           1.92406941201074    2.03026959841498   -0.56933371858636
O          -0.24389606511990    1.66961109354748   -2.11429770496014
H           0.63482872198226    2.17057272211776   -1.94364156935771
H          -0.06681194267579    0.71042054814044   -1.66363160622135
H          -0.95503409626605    2.10817162702201   -1.50427047231174
O          -0.73667212041987    1.90704306375769    1.77459330695371
H          -1.48831199349138    2.40615107093494    0.43560835394681
H          -0.61421097668186    0.93378571755420    1.75337935051054
H           0.16163674971433    2.25120948492075    1.75867447614792
O           0.45645107482468   -3.17021694637153   -0.76063567856735
H          -0.17489955677110   -3.38869892495181   -0.02660102923460
H           0.07799945035961   -2.40499720404009   -1.21353018146251
H           1.50001915379054   -2.25518682968367   -0.03154271722395
N          -1.15332192966930   -3.26704831345162    1.37823559038366
H          -0.85106075019362   -3.81738784846283    2.17216497400475
H          -2.16457481690602   -3.30023909043985    1.34877360060986
H          -0.87756479152202   -2.29906511993928    1.55327045044986
