    26
        -50.45935532  Gyration_radius:  2.53813366061 Dipole_moment: 3.913
 S          -1.28344916633557   -0.16291723492195    1.51766932842310
O          -1.50625790500193   -1.48042897733573    0.90727042659500
O          -1.30234667803098    0.86928011910344    0.51205707152537
O          -0.10600167129902   -0.14887925508990    2.36452736618315
O          -2.50725914181507    0.08756907696099    2.50028686908014
H          -2.10705717931723    0.03442616781663    3.36323169627155
H           1.06779430021593   -0.24242102958810    1.18298557999500
O           1.61412988269723   -0.56894388614055    0.43134156243127
H           1.66065821347108   -1.52980629144916    0.60730337144767
O          -1.21115053680844    1.22261122035966   -2.58360668907537
H          -2.11443796301930    1.35218636307254   -2.28655104054501
O           0.69514891776721   -3.00169163961661    1.08339817565267
H          -0.17490771830882   -2.54989156796096    1.06534384811963
H           0.84249343717284   -3.24223196696436    1.99936814999238
O           2.58766495355699    1.81844891276987   -0.56879348653781
H           3.26596166158997    1.62900394526481   -1.21817788134444
H           2.38014730290004    0.98337618152628   -0.12192851140150
O           0.01141234160098    2.77647239186636   -0.90016964791045
H           0.95887318560330    2.59072445435314   -0.78795460960698
H          -0.68652324632759    1.90641115208207   -2.07244620432493
H          -0.44204586446774    2.26957843224220   -0.20531043242455
N          -0.32794123167941   -0.93668800050480   -1.38651815863057
H          -0.99671930356166   -1.20210404940677   -0.62102093814896
H           0.54615845396724   -0.68534943011213   -0.85986574059264
H          -0.16363160308675   -1.71691144782496   -2.01509047086216
H          -0.70071343153292   -0.07182365057110   -1.90734961439079
