    26
        -50.45568713  Gyration_radius:  2.56640857389 Dipole_moment: 1.975
 S           0.95276149254337    0.13014702582914    0.31879329891561
O           0.32000441383346   -0.79434623479246   -0.65572946027664
O           1.14264886595297    1.44110350789443   -0.27379088211420
O           0.16754687693675    0.17962013524109    1.53822306275921
O           2.34898501150088   -0.44601776127535    0.62672880739413
O          -2.69834098839297    1.35617409559588   -1.21631669532860
H          -3.34749025839654    0.76172227127037   -0.83628943026749
O           0.93325711484781    2.00648733042347   -2.78783234574236
H           1.09341529437952    1.91493879008573   -1.81254858812149
H           1.75806898811707    1.77682585237188   -3.21968148807854
O          -1.29138751468865    2.24329076973429    0.79287446063386
H          -2.20891875500582    1.76517332829378   -0.44663839196306
H          -0.84371212443438    1.47199794666614    1.20198801933103
H          -0.56621187135580    2.76947786688191    0.44227132032347
O          -0.86501459752996    0.23127569501890   -2.55230383193691
H          -0.20664209957818    0.97430609569661   -2.81047268444541
H          -0.35616204537301   -0.27557988254257   -1.75313245172151
H          -1.66468648309241    0.69582010812224   -2.08869662926709
O           1.49251570936667   -2.84380546152158    0.72391262078152
H           0.99634797170396   -2.83106887631520    1.58345287378405
H           0.86150080474720   -2.55342895359781    0.05205476242379
H           2.18050954899366   -1.43520476763010    0.72380944939639
N           0.07789213410833   -2.30085287661039    2.93276045116231
H           0.01032292901536   -1.34427163160731    2.58052209085096
H           0.57392846817770   -2.26565293090180    3.81438214717305
H          -0.86113888637216   -2.62813146233709    3.12165951433168
