    26
        -50.47071343  Gyration_radius:  2.41589967656 Dipole_moment: 4.144
 S          -1.18758074230045    1.33387006814393   -0.96049838503376
O          -2.01404786697365    0.27355103571242   -0.43602758591794
O          -0.23732381846082    0.90318566992236   -1.97295183706758
O          -0.52948495216606    2.09151283225792    0.10565023701192
O          -2.16576871496490    2.34583856919930   -1.68582371741522
H          -1.56589752490148    2.87452844108204   -2.20061150298158
H          -1.02035770680718    1.40047310253630    1.51709174577372
O          -1.39262217899374    0.77668726343437    2.18296292112999
H          -2.20777554931832    0.47947331754454    1.76327929059875
O           2.39510732681617   -0.65661759845019    0.47243428863628
H           3.32508023304982   -0.72310956531013    0.69151817126014
O          -1.24178445990555   -2.26421187251560   -0.19773509385793
H          -0.53655102031872   -2.25144845061302   -0.88771948537091
H          -1.73341686022858   -1.43299300462852   -0.35656712591449
O           0.79572409721453   -1.58121467486210   -1.73531393862702
H           0.40807683381034   -0.71500750953787   -1.96517658275066
H           1.49837145368102   -1.39624594011728   -1.09800217659356
O           1.94089724892541    1.65163001775794   -0.62921763032032
H           1.16866949119777    2.00721418481631   -0.14588970166420
H           2.26578359238854    0.25957962050746    0.08676402717900
H           1.53316478715602    1.37843838133943   -1.46583520224949
N           0.11781884908120   -1.36025287853930    1.80899540240166
H           1.03927820407738   -1.09607746052166    1.41047195359444
H          -0.42989658778552   -0.48392335837534    2.06455628356700
H          -0.45728400947221   -1.84856181065098    1.02009536916055
H           0.23181988519857   -1.96631838013222    2.61355025545068
