    26
        -50.47217139  Gyration_radius:  2.47532204396 Dipole_moment: 1.725
 S           0.94023212537366   -0.22800943360268    0.73786705763065
O          -0.34642409612832    0.15530355825768    1.28842533437682
O           1.69364420076582    0.91268964969020    0.23589181095609
O           0.77859828084425   -1.24489270197582   -0.30587153298497
O           1.74744822263115   -0.88239157323302    1.89856911091398
H           2.66692670742750   -0.89268790366823    1.55699574769825
H          -1.91723722714121   -0.26096278432023    0.66148208516835
O           0.01755424686712    2.29690308238681   -1.34027334679775
H           0.77071903572687    1.94299936890921   -0.82690048820207
O          -2.60706831797883   -0.58640923582361    0.04914628591082
H          -2.48181798746603   -1.55279275351420    0.07960748792612
O          -1.24824413335352   -2.92179614460288    0.22352363291776
H          -1.07967371863527   -3.36549011070128    1.05575912124403
H          -0.44218734247337   -2.40317495155710    0.02592135533498
O           3.96922098299073   -0.31404502541898    0.61957017397648
H           4.60747138039893    0.25130893802739    1.06100512159047
H           3.27855412522471    0.27660154887558    0.25483149659080
O          -1.58209370425315    2.50216128354496    0.80917608542439
H          -0.59789976679995    2.63279341862508   -0.65577702129469
H          -2.49466742369680    2.20722697988242    0.77178079613599
H          -1.07229194887787    1.74768429904563    1.15907427667430
N          -0.93378817173255   -0.05802219311186   -1.91159003064881
H          -1.10125856123236   -0.33771961502311   -2.87163535548368
H          -0.17046384212162   -0.62594116629152   -1.46342593489716
H          -0.61492424295091    0.96625138856860   -1.82630415958469
H          -1.78032881341497   -0.21758790293938   -1.28684912058085
