    26
        -50.46327494  Gyration_radius:  2.5234307422 Dipole_moment: 1.038
 S          -1.11235813549602    0.20139834211414    1.62818884060175
O          -2.43284073825477    0.40915248985765    1.08769005689069
O          -0.14733433222359    1.21925713089348    1.22905324927163
O          -0.58190697946222   -1.13435757406590    1.40237979746636
O          -1.27056697196631    0.34876897493198    3.20507171778929
H          -2.10460970654834    0.80299684284469    3.26255475464121
H          -1.32913672800091   -1.94405637285779    0.12672102168475
O           0.45108581634878    1.43907826897814   -2.98820539752365
H           0.38177534465784    0.98694334017682   -3.83015605945391
O          -1.62783996627835   -2.29840783089441   -0.73923641726534
H          -2.55550057814637   -2.51209760010526   -0.62905347462038
O           1.28097947966936   -2.00333242659239   -0.33441051770487
H           0.76719764419401   -1.79877974862640    0.47080506069323
H           0.64715434788379   -2.43680631015533   -0.91492167638999
O           2.53214510077396    1.43356125170352    1.78151072597758
H           1.55993142415159    1.46352367613095    1.76329411559393
H           2.77736479601290    1.20018445948019    2.67717112176638
O          -1.40043202617530    0.35187153010469   -1.38613132267849
H          -1.46687405542051   -0.61808324912048   -1.42387930390643
H          -1.84639654353607    0.59258112217189   -0.55840174598163
H          -0.35314992909185    1.20110402439249   -2.48145587661127
N           1.59071421839857    0.62349095330199   -0.69369110105179
H           2.43774763502976    0.99886802163688   -0.26454643927502
H           1.60841274079607   -0.42789996693303   -0.68797465875112
H           0.79861140913959    0.90134072257681   -0.05853596412862
H           1.39582674353699    0.99969994818140   -1.64384049701901
