    26
        -50.46956823  Gyration_radius:  2.4882138486 Dipole_moment: 4.352
 S          -1.28513902269336    1.17999201321416   -0.62071182083572
O          -0.27038939023960    2.05574000833542   -0.03308245694936
O          -2.37364738981473    0.87273369097364    0.25870796897525
O          -0.63046574871876   -0.04010043700158   -1.13440912006562
O          -1.85908081397065    1.91473859661902   -1.87802103138026
H          -1.05485788000717    2.13998784052764   -2.37737555533370
H          -1.09533496653683   -1.46295355126830   -0.46601312598224
O           1.13979832196003    0.93638156551682    1.93036707941382
H           0.67532129020364    1.59367970628905    1.37627498837543
O          -1.26678614977668   -2.30389656606449    0.02421695134111
H          -2.14043419553029   -2.59179026753061   -0.24373116696420
O           1.28539124498691   -3.02046444630674    0.57703844103162
H           0.34934765065600   -2.96032178885145    0.30610900711865
H           1.27918583223882   -3.14331337017935    1.52872500599280
O           0.69889823009113    2.58351654060078   -2.37698950638603
H           0.52560288906614    2.45530819340820   -1.41808837033858
H           0.85325800675001    3.52250196307915   -2.50091957774756
O          -1.08381269114016   -0.52272461788683    2.17097779791777
H          -1.13075599618608   -1.34321132461601    1.65909617865927
H           0.40663543799489    0.37794376642080    2.27215699933872
H          -1.66419003181318    0.08701109446099    1.68033635807063
N           1.76299850273996   -0.47119638551618   -0.16086662653527
H           1.76375188487060   -1.49031580730100    0.07455515041926
H           0.86618250557396   -0.26742519343659   -0.68559652672230
H           1.67749403980822    0.10405241121592    0.74929160226820
H           2.57102844946850   -0.20587363469653   -0.71204864368211
