    26
        -50.47250246  Gyration_radius:  2.48727340564 Dipole_moment: 2.862
 S          -2.15204947030102   -0.29833007540175    0.65160445022157
O          -2.45297871929780    0.42135816589722   -0.57984458163820
O          -1.01091251588420    0.26785850812504    1.34521568785735
O          -2.04558025522567   -1.72851770508203    0.43430288165504
O          -3.39701963754688   -0.09124168058259    1.60927480867404
H          -4.05167129942509   -0.62868872386001    1.17681653718367
H          -0.71328582325272   -2.12991064847373   -0.34277751060044
O           0.65373160757490    2.34032263949590    0.87212359990058
H           0.02084691868219    1.72432577801901    1.28526984542032
O           0.15079686677272   -2.36821156908210   -0.77028092232977
H           0.00359888646600   -3.20499773506532   -1.21355066471694
O           1.43543151341715   -0.21879892706718   -1.86670133259665
H           0.99480796709348   -1.03627618865060   -1.56679849361237
H           2.03597531037256    0.03032853707641   -1.14119861225206
O           2.66581375388853    0.49564097755435    0.49186826091471
H           2.13980875111233   -0.20338230088860    0.97892250726298
H           3.55432721570254    0.46222800821761    0.84661615835431
O           1.13812305204359   -1.29784095454259    1.60265838336226
H           1.48907719238274    1.84068477656919    0.81969055981201
H           0.31631309413202   -0.77268980862955    1.68012535073750
H           0.95842402715032   -1.92170182752782    0.88401120304276
N          -0.35130382065345    1.68356658002312   -1.46589114773860
H           0.33975458610620    0.93783974869993   -1.77422356755704
H          -1.24848019962406    1.20207374977563   -1.16671716894360
H           0.05481711808377    2.13441805973860   -0.59113537717042
H          -0.52836612976780    2.35994262566368   -2.19938086523970
