    26
        -50.46956788  Gyration_radius:  2.48865110588 Dipole_moment: 4.338
 S          -0.42622106004192    1.74289014618726   -0.45049691998442
O          -0.68735741840695    1.68895189620401    0.98857657806283
O          -1.58534278732826    1.52519437486127   -1.26410418230270
O           0.66214785285829    0.80038812994911   -0.77912951655472
O           0.13657470280460    3.16876019097379   -0.76643746011631
H           0.86788373655158    3.25393968609591   -0.13019737960068
H           0.29061893678611   -0.41415499982564   -1.81646302592943
O          -1.33463713071132   -0.73112114428283    1.89410872085731
H          -1.27950185548553    0.23851231163630    1.78543554948154
O           0.04008201662990   -1.22273209606764   -2.32652323215668
H          -0.07660256212174   -0.93642841427338   -3.23336980974951
O           1.56948920238022    2.85967420590667    1.48879330303149
H           1.47473997500889    3.56900169676884    2.12810492298878
H           0.72717563213617    2.35377865880954    1.50907740172095
O           0.98750348673102   -3.11962911671903   -0.64157182236875
H           0.22482518851809   -3.68279013699119   -0.49343613855872
H           0.75623390700522   -2.54439505191451   -1.39562894432702
O          -2.16959305050046   -1.02729712881298   -0.62560689603231
H          -2.21056124674246   -0.07642070938249   -0.83440842283822
H          -1.52996782275562   -1.37309632673966   -1.26494939845402
H          -1.80767797863951   -1.01811865720779    1.08179651928369
N           1.10349983839375   -1.02255535063945    1.04975605836917
H           1.87031192986453   -0.88940360590803    1.69888468451712
H           1.19621235859860   -1.91215403940224    0.50741643358886
H           0.14088687345441   -1.00265684610391    1.53922122151935
H           1.05927729502896   -0.22813770311597    0.35115174555891
