    26
        -50.46956830  Gyration_radius:  2.48828690515 Dipole_moment: 4.350
 S          -1.55983631666742    0.10074553893088    0.99184214551292
O          -1.29060746367646    1.26079695674543    1.78848307621624
O          -0.92156778838282   -1.12204285344698    1.48085460412371
O          -1.18907307909733    0.30605189445815   -0.42290610498326
O          -3.10490570095406   -0.15044284972805    0.99340290140283
H          -3.18551698486884   -0.98010736619808    0.49145402387061
H          -0.36527491809693    1.67981849328655   -0.77226876498134
O           0.24746568478965    2.43023096325638   -0.96789805566894
H          -0.28733855968332    3.22422134423521   -0.92865973825467
O           1.73418369511928   -1.13380690567369    1.26935795979994
H           0.82503149796068   -1.29990211054516    1.58669809256305
O          -2.48439484406164   -2.57836676596999    0.01455021483538
H          -1.76763617870339   -2.20598736828201    0.57439890611908
H          -2.85400238032500   -3.31667175184686    0.50359342507564
O           2.20567649387424    1.07566460824364   -2.25655856434265
H           2.99815782830585    1.31996744367254   -1.77383546159046
H           1.50812934806263    1.69135195311683   -1.96034346753781
O           1.36846984714475    1.50728451112432    1.42078626241422
H           0.46969009815845    1.46882902435172    1.79508181432950
H           1.84925856075447   -0.16991885033042    1.42375721075631
H           1.24751754714519    1.98364580107818    0.58662579933924
N           0.91947754775470   -1.04320480799635   -1.19469616411167
H          -0.01195472382101   -0.59143025278988   -0.97211327051682
H           1.48221267459532   -0.34942158591900   -1.73877402083312
H           1.37991041624478   -1.19725688638159   -0.23002374760102
H           0.78692768843679   -1.91004816740843   -1.70280906591717
