    26
        -50.46654163  Gyration_radius:  2.46915397531 Dipole_moment: 5.993
 S          -1.04642603967563    0.13626968709187    0.43149556776391
O          -2.45583930144562    0.05290780742547    1.05571606854323
O          -1.26110840896739    0.67448751547737   -0.91978808624568
O          -0.20714907095313    1.00904010081272    1.22601824413587
O          -0.49656079586659   -1.21859640254570    0.34671009213285
O           1.71812820815336   -1.43212234656351   -1.08517525838872
H           0.95362221386440   -0.86224450090618   -2.19633227253133
H           0.95700845929816   -1.60698315580076   -0.49038239100490
O           0.50878920665783   -1.13887418497933    2.79756541834113
H           0.76906280884649   -0.21170885473059    2.77020660829643
H           0.24261816820614   -1.33802640308914    1.87746755530579
O           0.48572058350206    2.41575073502770   -1.93980613546100
H           0.37302578044555    3.33744550680352   -1.70358966008013
H          -0.23170631080378    1.92789733075965   -1.48166954138141
O          -2.04564316854590   -0.98046822083238    3.39613740562113
H          -2.34504218009011   -0.28542411925830    1.98752472261258
H          -2.38856316987936   -1.87657396284331    3.41166540735541
H          -1.05737519414189   -1.06127651713648    3.35756120560403
O           2.07471739249913    0.99659875629540   -0.14006319278495
H           2.11587044781705   -0.61014156447829   -0.70239068392728
H           1.82210281878832    1.60872571258975   -0.84757555260717
H           1.32511193084698    1.03377186621947    0.48835923614603
N           0.22578422324294   -0.29470525715477   -2.81317587630765
H           0.64686411590647    0.57258983492293   -3.14645569186670
H          -0.52028069851385   -0.00946751148518   -2.10490339383361
H          -0.16273201911566   -0.83887184148433   -3.57511980548591
