    26
        -50.46306789  Gyration_radius:  2.47076610331 Dipole_moment: 3.590
 S           0.13591133042996    0.55239311198302    1.39592944929971
O          -1.06069024141936    1.34965710945734    1.14452745806396
O           1.26389412967067    1.02883273035489    0.62806336939635
O          -0.13691419903580   -0.86759272287196    1.11929281735142
O           0.49938158157738    0.67035047557183    2.90156443345508
H          -0.22802540054816    0.18653798474429    3.34255628204637
H          -0.78723476462172   -1.00268626862046   -0.43152995042010
O          -0.98982943201181   -1.07764174748644   -1.39049458402958
H          -0.88430601723351   -2.01609287681905   -1.58252838509376
O           1.24840569698838    2.32399884594544   -1.80733638686658
H           1.46775352838907    2.32457699403111   -0.86253685587076
O           0.95533926310618   -2.94440450807364   -0.44001449748810
H           1.70667750736885   -2.51326054529381   -0.85898269695774
H           0.68306470037404   -2.35796478406126    0.27935056019213
O          -1.38981914821795   -1.09305704628137    3.42239967754989
H          -1.12480476534004   -1.21824559935197    2.49076275687011
H          -1.13699383561006   -1.89212838067131    3.89087563116946
O           1.72356764679447   -0.32643043455031   -1.67015505287473
H           1.73246587854865    0.00871334340011   -0.75502350275176
H           0.83187650673502   -0.68413381326521   -1.79918418177116
H           1.61625506103144    1.47034332489744   -2.11464309354722
N          -1.24822139220800    1.62753388404876   -1.40724181279959
H          -0.27958286518434    1.99774110779405   -1.68572800923496
H          -1.99983281863938    2.20804005028374   -1.76334158727409
H          -1.34514038618394    0.65003842147630   -1.71756862070403
H          -1.25319756475543    1.59488131337167   -0.32901323769529
