    26
        -50.46306791  Gyration_radius:  2.47078687281 Dipole_moment: 3.585
 S          -1.09653655856176    0.85751525253381    0.57807081972919
O          -1.22203916586648    0.90229968137705   -0.86109336963734
O          -0.06362766442341    1.77140037277309    1.05620270737669
O          -0.81691192196514   -0.50956862431194    1.04732672047525
O          -2.45771185181346    1.28873664909616    1.18962086710094
H          -2.34952870276233    1.07802916349814    2.13915764877391
H           0.76496672332053   -0.91520050455025    0.62357088250742
O           0.71617931817945    1.50729306954493   -2.72795147140195
H          -0.13771812701009    1.71015908616980   -2.31503967569498
O           1.61289326048418   -1.19527393699185    0.21264772180475
H           1.61687265055527   -2.15427299658355    0.30763413122544
O          -1.74618208319647    0.10084343262511    3.43262072220175
H          -1.22818884494792   -0.30669711327146    2.71190049553213
H          -2.32503142125380   -0.58326230030730    3.77730710223325
O          -0.51644064192725   -3.08278252770253   -0.05919974400062
H          -0.83459735550338   -2.29099874608377    0.39616012883967
H          -0.66204134449620   -2.92183948635909   -0.99667943075394
O           0.10196563099224   -1.05909600430022   -2.17588444277578
H           0.64183270047929    0.55026298712632   -2.92059520135511
H           0.75623717188093   -1.26610951385083   -1.49127813146395
H          -0.56636145806001   -0.50760435322346   -1.72967820238858
N           1.99840789281004    1.41393790132405   -0.44196238613458
H           1.18866281460859    1.66107681329495    0.22652518561378
H           2.80224231236302    2.01265994076540   -0.28676078831983
H           2.22156142465563    0.42521066055227   -0.25813522762271
H           1.60109520143725    1.51328110686886   -1.43448705186297
