    26
        -50.45572469  Gyration_radius:  2.50384022537 Dipole_moment: 3.217
 S          -0.12126090916341    1.32318315644630   -1.01146218611133
O           1.00274794741692    1.80687342389687   -0.23574586639720
O          -1.33414600961912    1.17567745338421   -0.22659289753612
O           0.22318795948753    0.05932272579617   -1.68490522942488
O          -0.44343714674818    2.35890685130422   -2.13273819651991
H           0.41241811643444    2.42308008960109   -2.59943692798543
H          -0.34661360309420   -1.22420259005052   -1.32451080229165
O          -1.50831916268042    0.60149508894482    2.38605457938076
H          -1.39992520494160    0.94593942379072    1.47624272365242
O           1.10209242966017   -2.60448722643234    0.72372977098590
H           1.92997098610252   -2.75776548332221    0.26509754021506
O          -0.71506075830525   -2.11752089335085   -0.92804616533260
H           0.01934225794903   -2.41045323292951   -0.23029483147286
H          -1.55314177024050   -1.82922842019717   -0.39675693307974
O           2.09073665265305    1.85428984960455   -2.66899019583155
H           2.08974717301848    1.96235825025430   -1.70307822154042
H           1.87653049313516    0.92617337237646   -2.81367758694747
O          -2.62789751896462   -1.06491344869766    0.35301725135433
H          -2.39275855191872   -0.18137162857818   -0.00040726192367
H          -2.44627979611580   -0.99228848146621    1.29967160218608
H          -1.90530055767026    1.31103961369981    2.89317191432060
N           1.23446460117148   -0.23534281714276    1.74345918433304
H           0.37506741023112   -0.08338262262108    2.26636840425075
H           1.24852886517670    0.47353214166351    1.00758067205139
H           2.00775700059733   -0.04101746704833    2.36765166480930
H           1.18154910645647   -1.67989711891056    1.17459799484876
