    26
        -50.45572474  Gyration_radius:  2.50349520509 Dipole_moment: 3.217
 S          -0.88885106173791    1.40288104161041   -0.17129085492293
O          -0.10740669811848    1.55408415284079   -1.38171199703129
O          -0.08572667046386    1.46021866851656    1.03721006925518
O          -1.67565925224917    0.15847541522940   -0.21799273182433
O          -1.90989665356889    2.57885535947516   -0.07936769927121
H          -2.39400994169864    2.49198119334237   -0.92338429380772
H          -1.41271818657429   -0.99014491468410    0.62647195057367
O           2.47212559823578    0.70668648540519    1.30847919678962
H           1.59181468636284    1.09803444457896    1.13524671450259
O           0.46386295284807   -2.84024148683807   -0.49035160300498
H          -0.03114052836050   -3.13351096408071   -1.25724287890465
O          -1.08529905668021   -1.81006426602663    1.18471704651633
H          -0.43734025415094   -2.32287390290454    0.52942318057949
H          -0.50662452353891   -1.39064116708260    1.93092300107173
O          -2.55896963237202    1.57094432415690   -2.43070863627974
H          -1.58801070211865    1.59306245248865   -2.46574431502362
H          -2.77130545155135    0.73083281165533   -2.00943904246315
O           0.33859560956447   -0.47628842459511    2.79803688119644
H           3.04933431648997    1.43896131816308    1.52948859314953
H           0.05556483609460    0.36047152186145    2.37314046031357
H           1.28198120576965   -0.53274473493134    2.59487136236163
N           1.67696096256278   -0.66264171690579   -1.16644414395272
H           2.29157632096162   -0.70452224421238   -1.97011646718522
H           1.00491230107281    0.08884023799034   -1.33311409201730
H           0.98904491411761   -2.00126934758462   -0.78173500681349
H           2.23718489906338   -0.36938623746813   -0.36936468380065
