    26
        -50.45984509  Gyration_radius:  2.54813805241 Dipole_moment: 4.849
 S          -1.84683481118227   -1.09118775871450    0.35560362253472
O          -0.99743131466717   -1.05986744856322    1.53246186503595
O          -1.30647952607507   -1.91877765924916   -0.71006425579006
O          -2.20611082281609    0.23990257956113   -0.09793833795452
O          -3.19966285960042   -1.77660144824652    0.82067947174522
H          -3.76128580074402   -1.63379095087088    0.06569891024241
H          -0.99066912142939    0.86783833828512   -0.95878923027043
O           2.79024476685793   -0.50521781483342    1.47477757046775
H           3.62842258148689   -0.23379637031339    1.09858697422672
O          -0.18297515083979    1.10014804138760   -1.47830993882567
H          -0.35153661037256    0.67307683040208   -2.33852362028772
O           0.69543597916450    2.86847833771371    0.31217308616265
H           0.29738586444311    2.38118119470356   -0.43738229649313
H           1.54171085235429    3.19218346188605   -0.00077967100415
O          -0.82393507673892   -0.91642258358959   -3.16432095036445
H          -1.11025148223463   -1.32160012084637   -2.32040863420645
H          -0.11928010734672   -1.47972713119070   -3.48955409229472
O           1.24692973450897   -1.03405039708104   -0.58691561918719
H           0.91035121949619   -0.18564397208043   -0.93867525508800
H           2.25358161517757   -0.86163600204518    0.72085062600310
H           0.44926891362712   -1.58123106655527   -0.49991195382035
N           0.61604301473325    0.87640676417938    2.14254744032513
H           0.56944451907064    1.69049346878565    1.48588912462817
H          -0.11107593800652    0.13520750823013    1.87739204339061
H           1.54846023405256    0.40398511705710    2.03445082711362
H           0.46024933707617    1.17064909197560    3.10046227372344
