    26
        -50.45572465  Gyration_radius:  2.50393516394 Dipole_moment: 3.216
 S           0.45238951924147   -1.40667422242768   -0.77670827460058
O           1.62564905789501   -0.67529911574142   -0.33263695694550
O          -0.20314922030354   -0.79434408994217   -1.91442137016704
O          -0.50130452195300   -1.58835080591072    0.33093202611296
O           0.94652661283640   -2.82913756296798   -1.18473991409477
H           0.11953707787153   -3.25004191529478   -1.49010631422715
H          -0.44386633396150   -0.84006821327948    1.57078976896782
O           2.04853949902755    1.96520013433623   -0.51785240741440
H           1.91751244921350    0.99841562111625   -0.59658975636080
O          -1.90237818498212    1.62290133867618    1.50667037806349
H          -2.79330163040229    1.28551489500404    1.39895719332313
O          -1.62328667357686   -3.04347051546735   -1.74573465221653
H          -1.39048370792786   -2.17361090915317   -2.11165575992776
H          -1.84366127973046   -2.87243956105443   -0.82369838305887
O          -0.40145503890706   -0.18073448919908    2.38005914695461
H           0.56660775135597    0.18022150685271    2.35925330230188
H          -1.04130125566602    0.60908726996399    2.10026012437864
O           1.98124134103155    0.57431959593177    1.97854298908442
H           2.79039527001105    2.17971344409667   -1.08518585102267
H           2.02888195379588    1.44688703780662    1.56525134938209
H           2.06323423061370   -0.04810854721374    1.22576313530293
N          -0.86407554377749    1.77166067080114   -0.85375384617583
H          -1.35683565311048    2.32570744358976   -1.54341575872090
H           0.06543097342347    2.17193038224800   -0.74897816430065
H          -1.51178032871741    1.73158267418238    0.55808231479299
H          -0.72906638334443    0.83913792298362   -1.24908430942697
