    26
        -50.45572477  Gyration_radius:  2.50379187217 Dipole_moment: 3.217
 S          -0.53485395451983    1.34427369376204   -0.83157089161877
O          -1.21970099861502    0.36449131584770   -1.65000919924139
O           0.91165252039795    1.24277851784250   -0.91047481292063
O          -0.99010948644964    1.25650253905071    0.56649958824122
O          -0.90547966559900    2.77257918638861   -1.33801058982562
H          -1.88056027823584    2.76074566973395   -1.27936455079655
H          -0.15928103014862    0.77927156040181    1.65462377367486
O           2.35899710901385   -0.96924965282607   -1.35460798723891
H           1.79572804392016   -0.16892243747422   -1.33645565154933
O          -0.29486940766689   -2.05101585737365    2.05603644691196
H          -1.21399844060547   -2.13569075884814    2.31508719652863
O          -3.31138728436685    1.80749875267747   -0.84318238197230
H          -2.87570766400887    1.07519225103133   -1.31061921772461
H          -3.07269898705073    1.68617802624438    0.08229173256819
O           0.46229019265412    0.31642945451700    2.35487634209824
H           0.18325045827589   -0.69958135470330    2.31173416857572
H           1.40708632576718    0.39876225409160    1.94426085532829
O           2.59966079474588    0.59245293754193    1.02732575419811
H           2.87538243943466   -0.22521827304494    0.59173974630111
H           2.85128283882974   -0.92908073783843   -2.17565931333258
H           2.11522041134244    1.08007663740412    0.32832334847855
N          -0.23755911815589   -2.06830579204640   -0.52611597723545
H          -0.64816286885938   -2.86715484182860   -0.99372304552248
H          -0.27199897055459   -2.11323800972628    1.02652880821671
H           0.73932197818798   -2.02000294754743   -0.80642869584134
H          -0.68350493771753   -1.22977212327119   -0.90310543631107
