    26
        -50.46489111  Gyration_radius:  2.5591443077 Dipole_moment: 3.821
 S          -1.78740031405940    0.00126888981312    0.87030253800921
O          -1.64066734024296   -0.53435998740688   -0.46936823677987
O          -0.91662112502717    1.15675106169559    1.07973946242109
O          -1.64603921701318   -0.98135611902690    1.92261402754818
O          -3.27675134089205    0.53573412077668    0.96985194053613
H          -3.46609360153907    0.45956005825742    1.89983434600233
H          -0.97651318006265   -2.35304425557525    1.12994884272913
O           0.90732859817796    2.43009399743631   -0.31077834873106
H           0.12913135223636    2.10141189512874    0.19458547482878
O          -0.58988515224077   -2.96091372382037    0.47036913810670
H          -1.07982210233824   -2.77226075277249   -0.33447968690653
O           1.85357941129291   -1.88187445958281    0.19464340553449
H           1.07937254072500   -2.48032696783776    0.28587407262009
H           1.81126709491668   -1.31653905038713    0.99297889421747
O           0.80874319053612    2.03187299646290   -3.17197644946576
H           0.42224001074165    2.65830486965185   -3.78469612195355
H           0.81066883890850    2.45793079824794   -2.30501061954781
O           1.07409045039921   -0.23554897334640    2.19723778377902
H           1.56334860509429    2.66284015462512    0.34939103667451
H           0.37998758430932    0.34648462791987    1.83490566043921
H           0.59636685758357   -0.83747400676170    2.77435691941810
N           0.80239420074137   -0.10544466425057   -1.38121914360568
H           1.35862726753425   -0.87151165273744   -0.86987894004493
H          -0.21224824294543   -0.26266978497822   -1.15136858958393
H           1.05018816376299    0.82677826859614   -0.99944100839384
H           0.94470742944389   -0.07570735013203   -2.38841639783278
