    26
        -50.46496092  Gyration_radius:  2.60264911987 Dipole_moment: 2.401
 S          -1.48320625761623   -0.05466864624047   -1.64860283997396
O          -0.45204618235165    0.23592878870892   -2.61162910860978
O          -1.41530768933134    0.86179492444165   -0.50180726511127
O          -1.52322898505685   -1.43817164723135   -1.21325660765775
O          -2.87980000038086    0.21531125092060   -2.34551968211414
H          -3.46577705427501   -0.34554268746391   -1.84584596597721
H          -0.11212233724546   -1.82997199639256   -0.59691631898790
O           1.70071301375162    0.87287859236919    2.61339825459103
H           2.51156956960613    0.67232988370217    3.08157439277388
O           0.81575229363422   -1.95098663478666   -0.25839074381285
H           1.23275109737543   -2.56977398733704   -0.85986961788258
O          -2.14524657298682   -0.13710542081775    1.84837103673410
H          -2.30402718165945    0.64428394252765    2.38117018551810
H          -1.93577176777325    0.18703744051687    0.94758068315002
O           1.83253100777958    1.58918297954764   -2.46024474313699
H           1.70539236879322    2.43120112037867   -2.89956097584075
H           1.03183548167512    1.05823603045001   -2.66262880837834
O           0.22577158407328   -1.30359888818949    2.45441298670856
H          -0.69464285267274   -0.99291495103335    2.33035949181402
H           0.45373383527725   -1.74943088834177    1.62803011714420
H           1.12990951204523    0.06206751077245    2.68851296653349
N           1.17801480121509    0.72683597186341   -0.00477723731137
H           0.15461946205627    0.93314891394106   -0.11390555237076
H           1.26028184691597   -0.30377705989770   -0.12398893872209
H           1.67513879485874    1.20258425123126   -0.78124106714567
H           1.50316219228977    0.98312120636096    0.95477535806837
