    26
        -50.46496093  Gyration_radius:  2.60262986808 Dipole_moment: 2.400
 S           0.46184483121033   -2.11236965301013   -0.49512574808413
O           0.44380796515885   -1.80691367494517   -1.90280141309136
O          -0.71987951571960   -1.56371502852615    0.18470651536915
O           1.68441356993977   -1.72821785785244    0.18531209700411
O           0.36477759240402   -3.68623587876037   -0.34489575747199
H           0.76956083333115   -3.83269900165240    0.50501052165943
H           1.92055147314654   -0.16916865592120   -0.00993879977646
O           1.96119739761786    0.80212463191705   -0.22241208578309
H           2.71997418024328    0.91034926986320   -0.79782165186866
O          -1.49973840258760    2.70142587153018    0.96817344619608
H          -1.41726567996493    3.65506189078620    0.94215925580359
O          -0.37344800414479   -0.78219622582385    2.69924721563817
H          -1.26811703610219   -0.73368895526637    3.04112634808598
H          -0.45042006141990   -1.13251896419101    1.78725342021667
O          -0.87350049575954   -0.00000950334687   -3.34261405122615
H          -0.31844123145933   -0.70571995504748   -2.94530977492890
H          -1.57431724721105   -0.45305305726487   -3.81355877735273
O           0.62477976856598    1.67544513284888    2.13931578015462
H           1.27255621643207    1.48275053882646    1.44873443875258
H          -0.74342913637842    2.37325960893331    1.52422567535950
H           0.34565900194263    0.79988345293598    2.47777198914661
N          -0.68597577839926    0.88345778853108   -0.81566321416852
H          -0.93773691385691    0.81911176715969   -1.82008008037664
H          -1.17838788081470    1.63420356319259   -0.28082599976259
H          -0.86967557374941   -0.05603713223212   -0.38505812303265
H           0.34121014757921    1.02547001731585   -0.72693122646060
