    26
        -50.46488813  Gyration_radius:  2.55659000001 Dipole_moment: 3.796
 S          -1.41174479366511    0.18368426436246    1.37115925119110
O          -1.75833633792689    0.21407145286111   -0.03678651672261
O          -0.12717742803012    0.83658849838910    1.61678816465651
O          -1.47564595749407   -1.13124224511436    1.97082603282232
O          -2.50889042150772    1.05478648875615    2.11376907428218
H          -2.53413062854020    0.66507666874667    2.98205181180615
H          -1.57989807323895   -2.20053379833167    0.62730204244402
O           1.71081411565361    1.98156988342729    0.13815818750252
H           0.99109901521605    1.71069749515057    0.75303900512549
O          -1.60582777524636   -2.57834032285451   -0.27298520787392
H          -2.12755382316580   -1.94669875698915   -0.77517160108506
O           0.96034573203078   -2.26695484846554   -1.00183098382669
H           0.04547614996319   -2.58974170498557   -0.84499152072951
H           1.30481656660928   -2.08641195099264   -0.10314082691369
O           0.84734694984063    2.79749785769757   -2.49438222499094
H           0.55206014663698    3.68621779145063   -2.69419702027619
H           1.20546390048410    2.82037626423121   -1.59744864235094
O           1.31011260651405   -1.41792454925560    1.54360512359071
H           0.85783218080810   -0.55727340825823    1.62255686021287
H           0.74760889402216   -2.02320512704321    2.03440784881656
H           2.52964375727901    1.75838713430101    0.58516286211517
N           0.41861654034082    0.21599303223955   -1.53506371224614
H           1.08696775558153    0.80206701032342   -1.00087628633907
H          -0.50607878284817    0.29052950423065   -1.03829511136347
H           0.35379696313460    0.59873338795688   -2.47580816211564
H           0.71328276753611   -0.81794999185837   -1.48784843770159
