    26
        -50.46111920  Gyration_radius:  2.71346481222 Dipole_moment: 3.932
 S          -1.62195495191374    0.51433796363592    1.78519641589230
O          -0.46124026152212   -0.24386751511642    2.24448936023379
O          -2.15537862469906    0.00920311290527    0.53860482482325
O          -1.34015592038703    1.94127800573851    1.74359866100242
O          -2.74756041696991    0.30446600758141    2.87934232469769
H          -2.31484485851727    0.61881391021830    3.66661905562345
H          -0.18015765016338    2.43522810878043    0.77702484639451
O          -0.80021149118969   -0.96316376845934   -1.52999661359595
H          -1.42898961489735   -0.92223975294219   -0.78135649495223
O           0.55247087925203    2.64987503864345    0.13652443454576
H           0.88993544703760    3.50668999517404    0.40049876344169
O           3.11121339608802   -1.72330079916649   -0.44124826682542
H           2.44777154200236   -2.29877911425182   -0.87862812882985
H           3.83160334258554   -1.62052742875816   -1.06415204740262
O           1.05394066256983   -3.00806309166082   -1.63619572392823
H           0.35420157957520   -2.34385905087062   -1.75895404306491
H           0.64634648028241   -3.74386721812752   -1.17642365375728
O          -1.45229435221827    1.63279863325859   -1.61944768642757
H          -0.76410668223306    2.19983682859441   -1.24911067726997
H          -0.99892240014976   -0.13638573820044   -2.01103230073802
H          -1.94820502008066    1.30061237056893   -0.85442331642088
N           1.09230329520355   -0.01747107194859    0.16486741681211
H           1.19318853406617    1.00506045254361    0.06186036562084
H           0.45236035111266   -0.37860107851995   -0.58319380180022
H           1.99468995956822   -0.52667398512356    0.10167225545575
H           0.59399675558836   -0.19140080460735    1.08386403050447
