    26
        -50.44933979  Gyration_radius:  2.87398680684 Dipole_moment: 5.577
 S           1.10460622629753    1.29832441393961   -2.57332564073410
O           1.80269161773720    1.68247546002920   -1.37342016741843
O          -0.28343030790787    1.77495780497728   -2.59987544270204
O           1.16217594951154   -0.13204362014677   -2.84917378024970
O           1.82886695388177    2.01606938672197   -3.78907661872430
H           1.31928601735442    1.71977475561402   -4.53738589538657
H           0.53191219321595   -1.01365049821588   -1.72352273845258
O           0.03302791660510   -1.52543643685600   -1.02163666533367
H          -0.14774111165846   -2.38555990714208   -1.40380463254337
O          -1.49681703714472    0.01121938457258    2.35488026585914
H          -1.34319744809745    0.75151298165438    2.94358925000865
O          -1.07106580811652   -2.74883068305841    2.87610767343449
H          -1.31103469751575   -3.08695485736570    3.73947075817103
H          -1.53734816155030   -1.90611286813090    2.76301444926995
O           0.89470267048576    1.60259165582400    1.09697173027075
H           1.26293989538548    0.76806585359394    1.41755881368427
H           1.37258165739774    1.78724962323839    0.25867138172677
O           0.84421889277495   -1.16743675138381    1.57249649806127
H          -0.60695732769164   -0.28351359575677    2.06691096626277
H           0.53195309377559   -1.95118777363600    2.04666570302711
H           0.71696545897472   -1.36653052072453    0.62759779544378
N          -1.15680374917741    0.83317296071626   -0.37111018353413
H          -0.97282140445811   -0.17641176791259   -0.50510847959333
H          -0.93236230555079    1.30817757350564   -1.30579353295034
H          -2.10426660182467    0.99104198234684   -0.04341288883367
H          -0.44208257269316    1.19903547368327    0.33271138124340
