    26
        -50.46147045  Gyration_radius:  2.59195884685 Dipole_moment: 4.228
 S          -0.02323796878971   -0.52487546634247   -0.52851697901824
O          -0.30766703691697   -0.14239856017159   -1.92252414380529
O           0.43468933251604   -1.88613761979162   -0.38786061464208
O           0.85505774077909    0.45961245194151    0.08756515865183
O          -1.41631364465201   -0.38107624214050    0.18744783233816
O           0.27688834158508   -1.95962508540977    3.46546001710845
H           0.62822500226728   -2.64133278330585    4.04025206892042
O           1.31463221276491    1.81216504384751   -2.83894649522757
H           2.22369607245111    1.50933501018313   -2.85642571233607
H           0.77471575280602    1.02881286728624   -2.61191746407249
O           0.37051771888236    2.94661178515020   -0.59287322288644
H          -0.99103448971867    2.47931049022604   -0.98715580699982
H           0.64045053342237    2.11606406329540   -0.13418152577642
H           0.83862035613727    2.87775812158557   -1.45006946461191
O          -1.38864200839152   -2.57298568071840    1.46585687159842
H          -0.90030102741671   -2.37441270499612    2.29904655312482
H          -1.52883732235028   -1.21180353378778    0.75606019203153
H          -0.71199454052451   -2.83078095385578    0.82132011848552
O           2.11385917560525   -1.35571158260109    1.63204032161973
H           1.72030654839272   -1.84793167659493    0.89217566336695
H           1.95290425474798   -0.43755184501374    1.37076475267547
H           1.02174617781603   -1.68400449072156    2.87824613066498
N          -1.82339553752246    1.84197397376902   -1.32546536978389
H          -2.41635677142467    2.29082560959821   -2.01603020702665
H          -2.35484831513483    1.50356308297683   -0.52481067625914
H          -1.30368057733450    0.98459573558166   -1.71945797814620
