    26
        -50.46771570  Gyration_radius:  2.50527480393 Dipole_moment: 3.817
 S          -1.90767965785057   -0.14421070228336   -0.91880074920676
O          -2.28606695305837    0.16605554290072   -2.26848861849040
O          -1.22512452146351    0.94926666230377   -0.23399867687276
O          -1.15029392208299   -1.38593482910354   -0.77607469687928
O          -3.26011994785464   -0.38842296391415   -0.11856974298580
H          -3.89626172266311    0.06094859191834   -0.66480421853419
H          -0.24516755906902   -1.68638153596040    0.46813040639124
O           1.45948663871971    1.84266842671565    2.35715212344582
H           1.23082477463899    2.68893729338426    1.96816319256403
O           0.38896531128886   -1.87096853508138    1.21622455220882
H           0.43151065205898   -2.82531005783603    1.29051786700864
O           0.09913416979799   -0.84266848768990   -3.08029750219254
H          -0.22747247790560   -1.33779096507010   -2.31101697443133
H          -0.69577698835598   -0.38800124973513   -3.38979309324215
O           1.06938335409101    1.09128454721212   -1.53327867761116
H           0.89068943622994    0.43052793375662   -2.24163532281431
H           0.19757653663203    1.22900269757525   -1.10597482201355
O          -0.76853194182152    0.46671220172319    2.33559286332711
H          -1.05261528192112    0.70045897630523    1.42652361995497
H          -0.49355834828261   -0.45701338349406    2.28132043286912
H           0.59113234243702    1.37758714977727    2.51013997050247
N           2.19819321794033    0.04914524992994    0.55851416715383
H           1.81250733066727    0.45629129528017   -0.36831350473828
H           1.62040355658675   -0.77790835864812    0.81686412780435
H           3.17873702053671   -0.19477743298185    0.48008254291113
H           2.04012498037568    0.79050194295892    1.30182074374993
