    26
        -50.46313953  Gyration_radius:  2.55693721203 Dipole_moment: 3.406
 S          -1.89257427083965   -1.15505883355515   -0.35898483266278
O          -0.96358977555343   -0.73536715407074   -1.41704375066480
O          -2.27575967010813   -0.03174214324874    0.45339578528182
O          -1.37567499508829   -2.29855696687804    0.37128986928924
O          -3.19115970922051   -1.68156999302541   -1.09749546715812
H          -2.96173858129257   -2.59302678990130   -1.24365005502431
H          -0.00000215078734   -1.92612611552519    1.08501003573423
O           0.20709567304874    2.57354738292784    1.37064639179836
H           1.09109899779526    2.69773711340132    1.71884135370569
O           0.85257934871618   -1.62895233942156    1.50076744188221
H           1.12901561248453   -2.35132168632855    2.06791432260395
O           1.64617037861867   -1.34426940281164   -1.14123015482320
H           0.70846104193805   -1.27064041209740   -1.39949486802679
H           1.61640799513392   -1.45403636273432   -0.17661376829732
O           2.45513579164014    1.06121511282928   -1.81612984954134
H           2.25335324387640    0.09975309955074   -1.65795052811742
H           3.24238594643576    1.25729180731503   -1.30684920211113
O          -0.69082303916761    0.43292335662128    2.54120342242638
H          -0.03595266351279   -0.25572426018001    2.33820911301772
H          -0.19690864137198    1.83177058633978    1.90625437298655
H          -1.42563468968255    0.26718008798847    1.91769930190962
N          -0.04668198260175    1.71460609189119   -1.13493034634770
H           0.94206520687816    1.59555782535445   -1.47420628647759
H          -0.51185130657907    0.76406392924307   -1.19936838571049
H          -0.02124168556184    2.05552289350628   -0.13349907103134
H          -0.55417609520081    2.37522319281202   -1.71378484463652
