    26
        -50.46146950  Gyration_radius:  2.58960515568 Dipole_moment: 4.233
 S           0.10972267135796   -0.31556963711301    0.67405454551583
O          -0.71675441513044   -0.37698910323956   -0.52370124253937
O           0.93430679499933   -1.53187493444880    0.77776425506965
O           1.16259180872165    0.82587265287084    0.42406111500735
O          -0.62691156717908   -0.01531702137842    1.87772440255159
O          -1.87970453402016    3.43787825136177    0.69603750786758
H          -2.54241015990908    3.98853313092578    1.11562365706853
O           0.15710017729223   -3.48663442194637   -0.91645404320833
H           0.41641038303245   -2.87057086055855   -0.20243230918952
H          -0.73003567200942   -3.77934540185204   -0.70258688336129
O           0.46202299250973   -1.42939024151794   -2.61870192586105
H           1.75421082547428   -1.12119648089350   -1.93754504772294
H           0.31937571589270   -2.35167348710777   -2.32243929234216
H          -0.11116905531698   -0.91543271005486   -2.00218557867490
O           0.23114316573120    2.52632473294078    2.06136215749314
H           0.89256722969062    1.59464394969927    1.02551961014512
H          -0.47208461692198    3.00404254320305    1.56225415825964
H          -0.20646011093457    1.75776190751608    2.45859793598461
O          -2.78334419587601    0.93298531835323    0.59092351931974
H          -2.29633170877223    2.55083019236956    0.57279897460780
H          -2.33537420192754    0.52274282246617   -0.16395221700977
H          -2.27672718701845    0.58047426838321    1.34062525140696
N           2.50822749082048   -0.92746998023571   -1.15838847604324
H           3.38135002714283   -1.42090356145638   -1.31395912923299
H           1.99936724486276   -1.25526424497032   -0.26724928008569
H           2.64891087745753    0.07554230664709   -1.04775167503152
