    26
        -50.46771578  Gyration_radius:  2.50475706802 Dipole_moment: 3.814
 S          -1.23667082352886   -1.60148231410516   -0.63405667040358
O          -0.12825074466775   -1.52940494438030    0.31285230677501
O          -1.02409793175999   -2.53713130537342   -1.70198414417426
O          -1.61835225317103   -0.26130891454427   -1.07458562681512
O          -2.48559149122857   -2.13865597999451    0.19124518731063
H          -2.50047499607733   -3.05884999654198   -0.04982683917313
H          -1.44177073151898    1.00828998146471   -0.17203931499542
O          -1.27603468765935    1.83845544157453    0.35631326883056
H          -1.92985051660752    2.47153497878967    0.05659374652689
O           1.85693132687652    0.76493387579873    2.65268981293750
H           2.36604304750881   -0.04778694310036    2.64387611138065
O           0.04879638943517   -0.51142247504718   -3.15409635584885
H          -0.11851583672291   -1.46350166382741   -3.15697336277334
H          -0.66667163903801   -0.17369340945547   -2.59048229264336
O           1.78671716498557   -0.43797344856351   -1.14178582107985
H           1.20632164244495   -0.99244387686464   -0.57859237240805
H           1.33091581520446   -0.41797921047048   -2.01480051078192
O          -0.63684818917679   -0.00131212486927    2.42268281116176
H          -0.49735847817461   -0.66734896751090    1.71656249967087
H           0.90525806574389    0.48100394296757    2.73807293418291
H          -1.08788601971296    0.73290856877463    1.98769185370573
N           1.43776444232148    1.73835679095009    0.22903779447590
H           0.41148748158083    1.91598393439038    0.23359277029645
H           1.71189276711825    1.44112014743553    1.21071400831190
H           1.63250539200095    0.88925275990900   -0.41452304737621
H           1.95374081383321    2.55845514261286   -0.06817875706912
