    26
        -50.46771572  Gyration_radius:  2.50516152956 Dipole_moment: 3.819
 S          -0.13335493586150   -1.64171173022962    1.33718789264286
O           0.82600930515195   -0.54869111156488    1.21311708720037
O           0.45869585768766   -2.94515004586940    1.22920998495430
O          -1.27269360451325   -1.42246025107238    0.44852366702140
O          -0.72855698387771   -1.53981699631568    2.80842993143636
H          -0.23595214114125   -2.21209746607695    3.26718902527678
H          -1.76679646817488    0.00954068135911    0.04495889845785
O           1.35304659063272    3.04110401912027   -0.02938819389761
H           2.23639537733341    2.75128493220667    0.20611845215583
O          -2.05692355360881    0.90745613880164   -0.27964659351400
H          -2.98749746617095    0.81889155736885   -0.49013826445954
O          -0.02559785348136   -2.85331758745740   -1.43924243372983
H          -0.73353048784385   -2.39456098105803   -0.95767760339147
H           0.39478103672981   -3.37772220073274   -0.74444696284244
O           1.55888920470629   -0.72029338255971   -1.31806422084355
H           1.48135835348693   -0.67978946793795   -0.34138724074781
H           1.08066186679979   -1.54512836708355   -1.56551235912358
O          -0.22775826346517    1.84209174372458    1.67984036000154
H           0.76496803024391    2.73046581470488    0.71314788243418
H          -1.06941303354230    1.74206922723066    1.21789751480101
H           0.19100628685280    0.95627888794918    1.63835486004059
N           0.16668149805265    1.42594864911015   -1.75603827017913
H          -0.76092759711779    1.26472722089622   -1.31091749962193
H           0.06771235877619    1.72279851140841   -2.71999435740359
H           0.67445110473646    2.15502604619394   -1.17490644734858
H           0.74434553753973    0.51305614788517   -1.67661510928462
