    26
        -50.45514016  Gyration_radius:  2.75102735013 Dipole_moment: 5.666
 S          -2.89922944438807   -0.00903182704018    0.09976247952921
O          -2.54195415298562    0.82792903862643   -1.05264816406869
O          -2.16815847504158    0.34563142361897    1.28945934843472
O          -2.81061322849957   -1.42188401000624   -0.24345043315683
O          -4.43200133354942    0.28495488246051    0.38679479438514
H          -4.84934965652073    0.00381758031995   -0.42199531742635
H          -1.34127256673572   -1.91443592634901   -0.52739533727042
O           0.39044334598270    0.87239896032288    1.54562868000446
H          -0.57835520936875    0.75802478367901    1.65615832427404
O          -0.40880662672924   -2.14616781119814   -0.80202095488285
H          -0.48965327613859   -2.92066937574900   -1.36037624406070
O           2.83817638943480    0.03664745185349   -0.88038704027912
H           2.81568979088112    0.86767678342355   -0.35984116296687
H           3.75987015415711   -0.13729635449475   -1.07307640732216
O           2.58085183818083    2.21721618025741    0.70431278090320
H           1.74857684812517    1.92873359255604    1.12332640358637
H           3.18627033516484    2.40919991358053    1.42188510312492
O           1.54179940959499   -1.48323087791298    1.07875544454244
H           2.10269199721808   -1.10086905249211    0.38229175351743
H           0.78284673933160   -0.02562718763287    1.65261867394703
H           0.82946383515649   -1.93928493977583    0.60740549170120
N           0.00790438212664    0.52327889222810   -1.07206187576443
H           0.08290896687306   -0.50841953930892   -1.15498133082649
H          -1.03278242336361    0.76266422791948   -1.18250100262129
H           0.26769724049434    0.78215777484322   -0.07897165462551
H           0.61698512055755    0.98658542623266   -1.73869233263483
