    26
        -50.45514035  Gyration_radius:  2.75109727509 Dipole_moment: 5.667
 S          -0.10957025442385   -2.66940215712435   -1.13091807937594
O          -0.03058555726443   -1.54354685510113   -2.02627745016228
O          -1.24951895267661   -2.57892583332914   -0.20964194807132
O           1.12401599311425   -2.92404348641054   -0.39940856328046
O          -0.37567227671053   -3.95698644489766   -2.01938017605590
H          -0.39140581502393   -4.65396824708657   -1.37031999260796
H           1.57707004313397   -1.72727193620195    0.51975677775723
O           1.75784491019979   -0.98572821621878    1.16473638011326
H           2.31084254778908   -1.36751230104273    1.84779883689771
O          -0.31587249058772    1.00730838860987   -1.47797399896561
H          -0.22250934351717    0.12279024358069   -1.89368538331318
O          -0.16953065351095    2.36107436399816    1.79569214289704
H          -0.79141597916266    2.64389002870318    1.09186240109534
H          -0.02031174843915    3.12786374601338    2.34949024996761
O          -1.74129738840651    2.99097142362250   -0.31723740342747
H          -1.65890501565421    3.81982845016144   -0.79116242107597
H          -1.37956962404518    2.30498296156814   -0.90884511722137
O           1.82575508496124    1.55168750519655    0.00842091132202
H           0.58865161455514    1.26426885800914   -1.18187742522075
H           1.27146992867122    1.90768110529878    0.72387295463628
H           2.07172708446674    0.66127028666645    0.29872096696168
N          -0.83496778189592   -0.25971669340637    0.81209189264786
H          -1.45372492635107    0.16401010983652    1.49591125784700
H           0.11957258627883   -0.38197400118255    1.20032003890044
H          -1.15034968165361   -1.22679489946513    0.46867888000217
H          -0.75174229382845    0.34824360016892   -0.05062572228097
