    26
        -50.46186221  Gyration_radius:  2.40666481755 Dipole_moment: 3.188
 S          -1.06365485770107   -0.10716830770369    1.44051992257155
O           0.07930207440487    0.78645807168059    1.47603998571873
O          -0.66624492859542   -1.48989231499618    1.22297815195415
O          -2.08195953537437    0.31010710186075    0.49205134086850
O          -1.73366757276282   -0.02458986006807    2.86706725766836
H          -2.61834490322569   -0.31425935358935    2.67416034099924
H          -1.65697424688549    1.45048202887716   -0.66250802679383
O           0.42586321653278    3.21462115801020    0.40184337675113
H           0.28191293433787    2.43681994621713    0.97411297471593
O          -1.20601104213106   -1.61143326147165   -1.32824575012990
H          -2.06889656171698   -1.18588190113523   -1.34032611295566
O          -1.19002377273319    1.99837075079471   -1.33347692287594
H          -0.65573820207740    2.63713885106360   -0.80921742189396
H          -0.28094903143071    1.05419803460756   -1.92085366705093
O           0.35824018988829    0.23472186059976   -2.16961473006057
H           1.13121315478989    0.24286385262679   -1.42384113197014
H          -0.21127268493738   -0.58385226947075   -1.95743538399943
O           1.97187942942852    0.20404736167712   -0.27713371768285
H           1.36653273708311    0.46116403627913    0.45267148123103
H           2.14003984016181   -0.76719446288735   -0.11840910494569
H           1.36348130085556    3.22306328084848    0.19794349709174
N           1.92365267295115   -2.38401920493905    0.28390497929235
H          -0.98352999966483   -1.68052726369184   -0.36982170032230
H           1.03504363287273   -2.25820097452142    0.76770810481586
H           1.76744717600615   -3.03754642157501   -0.47329171696465
H           2.57265899991693   -2.80949073913757    0.93317396396384
