    26
        -50.46186228  Gyration_radius:  2.40669791816 Dipole_moment: 3.176
 S           1.29556311263581    0.74386962410837   -0.99377569536373
O           1.63372233894425   -0.35830801058134   -0.11228726187609
O           0.75033787794118    1.87725845906099   -0.26211894350459
O           0.42709447555006    0.34929872912948   -2.08958962800190
O           2.64958422665006    1.21222201234016   -1.65537024707929
H           2.33374622121016    1.63976150414186   -2.44357251878666
H          -0.36406912915889   -1.12493709176312   -1.97191027146449
O          -1.77288934738300    1.44169491603938   -0.76965859415073
H          -1.72684167309049    1.25162507979546   -1.71177768715935
O           1.24872878597460   -2.99321765323167   -0.39433488695857
H           1.58950012562809   -2.08023148431447   -0.33478031517889
O          -0.83990052190671   -1.92868278120995   -1.66188391842935
H          -0.13586648958072   -2.51482497561009   -1.30273220301698
H          -1.59454436408610   -1.42693090378668   -0.54762776879581
O          -2.00725598115571   -0.88516857920071    0.27586232907316
H          -1.23833242861390   -0.88216834910340    1.02556508273909
H          -2.05087936461900    0.07359017850292   -0.06834478663318
O          -0.09080890849275   -0.74456365439260    1.85518657947556
H           1.11307595613921   -3.28422255035982    0.50995965512691
H           0.64193562229419   -0.64140188520193    1.20889502103670
H          -0.18045000825009    0.16198474077332    2.26342340438849
N          -0.22916326790852    1.82998654831425    2.46340240643495
H          -1.13899074915131    2.27384101235870    2.47062094849973
H           0.32433048034948    2.24307465046279    3.20285798912193
H          -0.85352022403735    1.70763848966368   -0.53114302153388
H           0.21589323410724    2.05881195416500    1.57513434194661
