    26
        -50.47039610  Gyration_radius:  2.41542705934 Dipole_moment: 4.732
 S          -1.36010562621950   -0.64129840831227   -1.36647700213964
O          -0.55134178987127    0.37821083153866   -1.98655521917635
O          -2.16362458720527   -0.16494979880342   -0.25205784292069
O          -0.58422488467515   -1.82170447089674   -0.97654118523566
O          -2.37824149043912   -1.13434074360481   -2.47326484657015
H          -2.94761387226167   -1.71880591416807   -1.98482235293079
H          -0.78419092054843   -2.02762167864698    0.64876121415633
O          -1.05077228898631   -1.84997244381861    1.58027424809194
H          -1.86354646572775   -1.34067553356039    1.46730052817661
O           2.49665387730763    0.41469122215466    0.31355561397291
H           3.45001439088562    0.35773981639372    0.38685003222956
O          -1.15818992918517    1.86732237223593    1.15266517746967
H          -1.67738393194527    1.22095867447914    0.62808344946676
H          -0.56896717824585    2.30731403215672    0.49473610172403
O           0.66835994272750    2.39679543616797   -0.68772245939950
H           0.21529964762719    1.79062667348095   -1.30287525244587
H           1.44532229884199    1.91435295879427   -0.37493014394585
O           1.76611382187375   -0.96360276130538   -1.76533532223314
H           1.01229850620944   -1.50581871002184   -1.45475155075106
H           1.32440368123297   -0.29758925438775   -2.30894497072174
H           2.24751080733233   -0.14897187267571   -0.47800356005640
N           0.51703161632102    0.18855335218511    2.17326148202650
H           0.78719509698184    0.31123920965037    3.14238774240409
H          -0.01068058437143   -0.72248430383468    2.02980578351965
H          -0.17713180805673    0.96760636708860    1.84752393214870
H           1.34581170050170    0.22242493773129    1.54707642309463
