    26
        -50.47207011  Gyration_radius:  2.39718297595 Dipole_moment: 3.397
 S          -0.33510711842109    1.71944159168453    0.37934450539191
O          -1.44730812595664    2.34906193110667    1.02951188991374
O          -0.69715928108178    0.90052451816196   -0.77653546801698
O           0.55308654384647    0.99321618493527    1.27119482354448
O           0.54429168942313    2.91234054083599   -0.23862138725574
H           0.12876330135086    3.68721727065172    0.12577405687915
H           1.61656657067374   -0.30499178529908    0.96863446071917
O           2.09059800162238   -1.00718989348784    0.47578135647457
H           2.31774240008407   -0.56332824895641   -0.36035285048461
O          -1.99020906767474   -0.98213315403243    0.69140532561890
H          -1.76367235785577   -0.22322935136495    0.12983213142071
O          -0.17086079460060   -1.10835500822245   -2.62111905447346
H          -0.65067507641842   -0.38647442938697   -2.18609949849249
H           0.70391318258266   -0.74199305731239   -2.79566173023159
O           1.81927424929096    0.71331997492704   -1.62700310810396
H           0.91324663507243    0.86441441113172   -1.29115695155123
H           2.25756506142467    1.56250982345268   -1.55024429936115
O          -1.47069477234042    0.37770170294617    2.92314176989964
H          -0.55482049281126    0.50468647990938    2.62773798042678
H          -1.90896745107491    1.18960625752181    2.63679353582242
H          -1.92412285724521   -0.64692453121699    1.61491287159231
N          -0.00361650615100   -2.39831006347519   -0.28076369012285
H          -0.83402191668148   -1.95195112976502    0.21813861257994
H           0.89043504731526   -1.95319145988914    0.10170059628027
H          -0.00408108724408   -3.40669240864548   -0.18083826319541
H          -0.08016573715151   -2.09927616618533   -1.28550760527392
