    26
        -50.46186224  Gyration_radius:  2.40664513474 Dipole_moment: 3.180
 S          -0.01238361538743   -1.51816489735045   -0.95555956307817
O          -0.47900630056172   -1.54935404522947    0.41830189038591
O           1.37314574796137   -1.08397765612831   -1.04961667056612
O          -0.87448426786782   -0.74274633731283   -1.83088111868537
O          -0.08056077472013   -3.00531647518931   -1.47944397593447
H          -0.12393549922280   -2.86938165987578   -2.41936246021700
H          -1.98634202706788    0.29289362181365   -1.12056039670270
O           0.91770009903037    1.39150846654012   -1.74264422210919
H           0.24426826782255    1.25889079105171   -2.41694643036117
O          -2.80834022051618   -0.76817169837305    1.48321481228293
H          -2.03696942194517   -1.24668382610790    1.12376285262846
O          -2.45537345599653    0.93252269616682   -0.53800851904833
H          -2.80110618839286    0.38876532287554    0.20568070627070
H          -1.37519258578470    1.72858177787048   -0.02622629192801
O          -0.44441451008628    2.14650202044053    0.29184147209550
H           0.17353285633630    1.98347526652238   -0.50232094010891
H          -0.09015292609278    1.49080113628321    1.06547184715231
O           0.39227366011737    0.45312261068859    1.90993982969567
H           1.37879783116374    0.43982379174722    1.75725163149410
H          -2.55076663132542   -0.47103998269389    2.35852033956411
H           0.07360052552042   -0.36315904682488    1.46568088052577
N           2.88489270200541    0.23014554172655    1.04250645403092
H           1.20200836025394    0.47837110903346   -1.50153791943056
H           3.32606730733474    1.04539271544709    0.63561940001519
H           3.59194966775349   -0.28542694458465    1.55045333423116
H           2.56079139970562   -0.35737429854915    0.27486304782023
