    26
        -50.46458908  Gyration_radius:  2.38121904811 Dipole_moment: 5.825
 S           0.59441818444917    0.76831386573904    1.15665194684934
O           0.87858616858942    0.85726330273554   -0.29903874328449
O           1.81673044777787    0.63847962720319    1.90261786877812
O          -0.30694356475737   -0.37235042533684    1.37989980353255
O          -0.13723025483677    2.05282609658157    1.56614854172132
H          -0.97907512361834    2.11572190046743    1.00518439624543
H           0.72540496965285   -1.72159642651576    1.99785802938501
O          -0.31497647064325   -1.13401830747793   -1.73419138594506
H          -0.03569877269516   -0.30006855666431   -1.31333225121267
O          -2.17234617326079    2.06669558830197    0.00979510767048
H          -2.44805897322568    1.13485450203205   -0.07872069711708
O           1.66486690431756   -1.98302918388694    2.04390053668640
H           2.07519436836875   -1.14639672135927    2.33295426224280
O          -2.46524171523735   -0.66300296990945   -0.01064372393672
H          -1.66109008244024   -0.59242871865946    0.56746002454603
H          -1.20260142910303   -1.28875807368776   -1.38582733769980
H          -3.15984413419988   -1.02574711162760    0.54051926213109
O          -0.54625549230419    2.19945447315427   -2.14870623256008
H           0.12450856194583    1.87327566389268   -1.52069995684674
H          -0.64480636492399    1.51745616811497   -2.81711030661173
H          -1.74793643283289    2.30356276832146   -0.83924720582662
N           2.02063321937178   -1.48663948865774   -0.48694679885190
H           2.90336755589705   -1.70965388691891   -0.93531239449329
H           1.85865654886027   -0.44490472047847   -0.40913813720202
H           1.20032924343949   -1.80107168177416   -1.04916750947317
H           1.95940883141321   -1.85823768359050    0.52509289126921
