    26
        -50.46458906  Gyration_radius:  2.38132886229 Dipole_moment: 5.822
 S          -0.23937649652816   -0.52114021350424    1.39685491146225
O           0.21632175868096   -1.68591531595334    2.10590914355997
O          -0.86900348658557   -0.90825281227274    0.10783940371502
O           0.86224231380110    0.41005120186385    1.10858522206202
O          -1.29644168294972    0.21908481420705    2.22606826157234
H          -1.60534700856398    1.01754391571866    1.68319524671428
H           2.38167571904913   -0.55626698438498    1.21759217875055
O           2.68342150784279   -1.48491546025571    1.21498002293058
H           2.04328527185855   -1.88872761493481    1.83027335257193
O          -1.99225329731315    2.13713971544003    0.67692900443850
H          -1.17804224552060    2.41917791146621    0.21893937847784
O           0.36816612934201    0.20682663541619   -2.05391249436097
H          -0.22825280787347   -0.05325196123629   -1.32775546867113
O          -2.87756733542233    0.35975443056356   -1.16095675243672
H          -2.51030782736406    0.42085464522236   -2.04583744142636
H          -2.30679784679279   -0.25906193233690   -0.66893746244343
H          -2.51970690041438    1.64988977418470    0.01248638550740
O           0.50521375238984    2.46730336212192   -0.41343314728963
H           1.02248498770680    3.20495146369224   -0.08755399753199
H           0.60851558351151    1.11919161385041   -1.84677614336449
H           0.69593395755247    1.70543754674747    0.19406968438524
N           1.26680760639734   -2.02880537007633   -0.90058184088206
H           1.30767607357041   -1.24660645811521   -1.58928857748857
H           0.32940334591367   -1.87618572321108   -0.43646687963432
H           1.33588521932496   -2.93818801097740   -1.34581652071380
H           1.99606372839097   -1.88988918325327   -0.11640547989951
