    26
        -50.43947775  Gyration_radius:  2.6342316323 Dipole_moment: 7.862
 S           1.67883714151891    1.30841499307309   -1.76763920838605
O           0.49804986033071    0.49032046433214   -1.71560653373943
O           2.24407092370611    1.59009709673887   -3.03512185730458
O           2.75276616536961    0.66684122734710   -0.83668246714728
O           1.37003441864754    2.65303057595014   -1.04217558117150
H           0.77008965362948    2.42606332968419   -0.29392434069058
H           2.41489921475401   -0.17607150324376   -0.41540709530525
O          -0.25179787630741    2.13465971887696    0.97627226215452
H          -0.40847872873144    2.98780128785475    1.38619989981281
O           2.03337397375289   -1.46998855375853    0.44011293731357
H           2.79851653883400   -1.64816759922719    0.99050185182313
O          -2.07529514133875   -1.42596592353943    0.79731734224967
H          -2.65555962608802   -2.16251677324695    0.99105060835228
O          -2.64468541766924    1.18149838003496    0.38307120294674
H          -1.12568316714443    1.82157265388881    0.62548064778089
H          -2.47515534518902    0.21699683505900    0.41752937810432
H          -3.35070585201918    1.35433274895134    1.00842068256620
O           0.19774341058386   -0.43412299359032    1.99949609203348
H          -0.63989127679642   -0.82709212092128    1.69554135209301
H           1.32890128418927   -1.11429535780168    1.05055782534038
H           0.16330357665511    0.49372644603214    1.72213670660538
N          -0.48852682634440   -2.08819859678743   -1.15386375970938
H           0.36217028065536   -2.50808516494230   -0.79614195253385
H          -0.22504886260312   -1.15056436528242   -1.46293268310800
H          -0.77669055679590   -2.60865029683514   -1.97269056551150
H          -1.49523776559892   -1.71163650864400    0.00849725543087
