    26
        -50.45490144  Gyration_radius:  2.54714179873 Dipole_moment: 5.591
 S           1.49037302145034    1.72626925266765    0.61137447767590
O           1.15139770446955    2.73219765866451   -0.36198029242173
O           2.53171515660906    0.80054786916598    0.14435835260859
O           0.36647533271009    0.99335241875675    1.15495903234704
O           2.14134434998893    2.51324473521944    1.83782647118949
H           2.45800941007121    3.30573533614305    1.41597160479809
H          -0.00892293338447   -0.43398086036693    1.72270628133014
O          -0.11855350068462   -1.38911030047769    1.98197407765219
H          -0.23669154153587   -1.39144063026157    2.93250756412177
O          -0.21559201937536   -1.14232160230184   -1.95742476723505
H          -0.11578636472033   -1.24079261027165   -2.90490139036548
O          -2.97972977169620    0.89508432937460   -0.11175651523544
H          -3.77359090686942    0.89813844341844   -0.64854622173616
O          -0.75060607286483    1.32621491719056   -1.60751334222918
H          -0.07171131725375    1.88707694005496   -1.18689967233908
H          -0.40711446820539   -0.15127276456419   -1.80862114694439
H          -1.51934561696134    1.33012555005094   -0.99788262989036
O          -2.13192759754113   -1.67108628625719    0.05578248520620
H          -1.52980013524423   -1.65093634649349    0.81558951123434
H          -2.75953709281916   -0.04807384002204    0.04916287460901
H          -1.56511086202430   -1.62532532650688   -0.72736073870484
N           1.62228022457684   -1.56762540590956   -0.08254471572913
H           0.95029879085765   -1.49446819667193   -0.88936517636682
H           2.06636687288738   -0.57501639880209    0.02618748416760
H           1.07520198086456   -1.75127640018395    0.77705406004941
H           2.33055736670543   -2.27526048160387   -0.24065767780514
