    26
        -50.45612336  Gyration_radius:  2.45580097321 Dipole_moment: 8.947
 S           1.83560023414763   -0.04656415220969   -1.04141111747928
O           2.84540787131218   -0.83665690581751   -1.67582652562882
O           1.67841833509585   -0.40124239066340    0.38396106515727
O           0.42745923721012   -0.42298701178526   -1.70028606362935
O           1.92530322985555    1.39322881103899   -1.20419110762788
H           0.84075072887346    2.30948071913302   -0.60410590779492
H           0.46184921333462   -1.41076368495569   -1.60706292422382
O           0.13296498513158    2.87286910312522   -0.15887069480066
H           0.39586355273867    3.78047956190575   -0.31798120758233
O          -2.29597784699571   -0.20638572437968    0.97259969534846
H          -3.23246277273659   -0.16071244416322    1.16825644961680
O           1.06587502386964   -2.81212999595932   -1.02302512111161
H           1.95613863028162   -2.44598625899554   -1.14146358494193
O          -1.74709249710156    1.12212267175046   -1.19340071323296
H          -2.16581524754005    0.26057227840547    0.09599527199144
H          -1.26651001895521    1.91811278840593   -0.91317224173653
H          -1.06182903517414    0.55388630261570   -1.58696272606513
O          -0.63380547310588   -2.49397675543535    1.18760434893482
H          -1.21929234945659   -1.73351312949260    1.05709984375836
H          -1.10414136586905   -3.26124229736861    0.85579224952193
H           0.82805882828117   -2.68708804885716   -0.08805497977141
N           0.04970748805957    0.95871303246177    1.74216769568030
H           0.78056178076873    0.32630874115109    1.17697750410856
H          -0.87416862792301    0.49728376235994    1.67771065260908
H           0.34936807609496    1.06414175319428    2.70410746493946
H           0.02776801989183    1.86204927444992    1.23354267388660
