    26
        -50.46489595  Gyration_radius:  2.45292239778 Dipole_moment: 3.808
 S           0.56002328053309    0.32661822287163    1.71805638187020
O          -0.04294050584590    1.32333259817463    0.84977376667098
O           0.32602016687365   -1.02709430717782    1.24924275327405
O           0.33510514231534    0.53099058386493    3.12085698745448
O           2.15694075305682    0.53491375364309    1.51014759114771
H           2.40659212735514    1.00353528550581    2.30076746317475
H          -1.23934619497288   -0.18125381463443    2.85484076152964
O          -2.16781461672416   -0.38040787598495    2.65082931402962
H          -2.69105848938540    0.20322814439044    3.20557237800857
O          -1.38090098880792   -0.41872649623837   -2.29323940465375
H          -2.09754698864723   -0.59512075110387   -2.90331154891164
O           2.67331695632710    0.17196160315438   -1.30043349894981
H           2.77223963562079    0.32314560555028   -0.35158359647490
O           0.55152016159810    1.67186887860730   -1.75186640921600
H          -0.14630531598722    1.14029063981865   -2.15639519210690
H           0.32512589146894    1.71463564058147   -0.80344163912107
H           2.04301031891198    0.87089500269113   -1.60536643093273
O          -2.35022678467889    0.32418934858725    0.00369565095373
H          -1.80945326336996   -0.17000791886568   -1.42485629732927
H          -2.52190837200122   -0.22203678717997    0.78749093528120
H          -1.58040051641876    0.85740259074052    0.28251159363846
N           0.77535554499580   -1.63017171711551   -1.21338167538682
H           0.54283216490385   -1.45916269746256   -0.18136419535374
H           1.63075489938659   -1.01601558332356   -1.38946017152421
H           0.96114171729672   -2.61110863063333   -1.38717908308113
H          -0.03207673381458   -1.28590132843919   -1.77190644403053
