    26
        -50.45490194  Gyration_radius:  2.54691397637 Dipole_moment: 5.610
 S           1.08918474148487    1.98900488381798    0.65770231483550
O           0.95695798558147    2.78217632993950   -0.53697365865525
O           2.29850549629952    1.15386444238739    0.66321404244153
O          -0.07399548131002    1.20044489726114    1.00525674671043
O           1.28879742357199    3.03134320847291    1.84984756696101
H           1.65534151001022    3.78303880941303    1.39478793019216
H          -0.47459626103755   -0.16054593902566    1.70476667466848
O          -0.57140831891441   -1.07040382232742    2.09717893315204
H          -0.96436462975531   -0.94347667311152    2.96144513465688
O           0.46597221027743   -1.44930166355470   -1.69504329791543
H           0.84926702147090   -1.67455295494672   -2.54341649332145
O          -2.88439227159521    0.44933840267056   -1.07862426304578
H          -3.48520634847396    0.26287467004435   -1.80157649877496
O          -0.36291344487233    0.94756301048982   -1.96528717472607
H           0.11040463948931    1.65598933574892   -1.48960412873456
H           0.15293175869961   -0.48310507432050   -1.78932605733665
H          -1.27332361901469    0.93891389628428   -1.59957896868955
O          -1.90049316619783   -1.92106569986924   -0.21568487978192
H          -1.54941249420174   -1.70120267254815    0.66114129900778
H          -2.63905421527470   -0.41962776619696   -0.69301217203986
H          -1.13698409329034   -1.91951737888561   -0.81030251464543
N           1.70555599734366   -1.32279742676423    0.65444637963812
H           1.29427456110251   -1.46964423710677   -0.30332903133184
H           2.00944721075017   -0.27341850739049    0.68924308682756
H           0.95053279951757   -1.44452756809828    1.35208085353953
H           2.48897096831793   -1.94136449233406    0.83064816637044
