    26
        -50.46489676  Gyration_radius:  2.45249801714 Dipole_moment: 3.797
 S           1.14225887792205    1.40311435659753   -0.31180215590420
O           0.59993268871408    0.61338743239768   -1.40208802328212
O           0.40781489096078    1.21291704672809    0.92740785541251
O           1.43250857611069    2.77047027495713   -0.63763505510809
O           2.58653326129693    0.71859308104212   -0.02475241241140
H           3.13875025161623    1.47305439904223    0.15647704818825
H          -0.21218320896605    2.85937586656912   -1.22280008880514
O          -2.11473987284595   -1.63559458807689    0.43149091092672
H          -3.01158054139310   -1.96650628926842    0.48671301528252
O           2.07731521184196   -2.03363186949896    0.65454583714085
H           2.50880254023003   -1.19417674593626    0.44906475757097
O          -1.17162608032616    2.94684944825062   -1.34628355274282
H          -1.40167017370865    3.81944321083072   -1.01812045055044
O           0.13060285010146   -1.14365220719185    2.19529137668392
H          -0.72319774934897   -1.42593964340172    1.84238726632597
H           1.47261534938534   -1.83038918649382    1.41064703924252
H           0.24402181675722   -0.22379411670808    1.88897997917619
O          -2.15165545934359    0.96104960009783    0.27645842791426
H          -2.11148290084505    1.51398394950624   -0.52033776529813
H          -2.18977507775189   -0.64263783230183    0.34191226159424
H          -1.27541031971931    1.11071530303733    0.68183122735118
N           0.11216151530419   -1.89307654147736   -1.07058916699133
H           0.92666331870073   -2.14426305196982   -0.42785539920507
H          -0.78749815405689   -1.96958876281080   -0.55376473883729
H           0.26552026913869   -0.85478731827633   -1.28666523865700
H           0.10531810016799   -2.44491582575022   -1.92051293506645
