    26
        -50.46489668  Gyration_radius:  2.45269286487 Dipole_moment: 3.795
 S           0.37691847603467    1.36545808709005    1.16864914942499
O          -0.52837576004454    1.48661061327407    0.03861793920875
O           0.64998747194334   -0.01816322813522    1.51136183219556
O           0.07004047125287    2.21813944100398    2.28168207871274
O           1.79724313113756    1.90638183521338    0.59728374950781
H           1.83617849418528    2.79051743375210    0.94907189984395
H          -1.13797671052685    1.03051277565006    2.71189100038061
O           2.46058401459439    0.24459262258066   -1.66145632767312
H           2.48367242381805    0.90878328303895   -0.96052343460792
O          -1.92892964426987    0.47606022925752    2.81416777677065
H          -2.63434427675369    1.06940058078432    3.08343729947693
O          -1.10395849640493   -2.00021457037748   -1.45489696930282
H          -1.70166168216988   -2.68959485795641   -1.74547333198555
O          -0.04899267427219    0.51879353672385   -2.42532717000980
H          -0.29241931982519    0.99987177377026   -1.61164881669282
H           1.62783247618106    0.43111698013111   -2.16177467395788
H          -0.50611437213496   -0.33003010692037   -2.36561802464985
O          -2.31091283062121   -0.46533829776025    0.26425936243233
H          -2.28721271937815   -0.51696133718189    1.23335477775396
H          -1.78825494653981    0.33987044114414    0.08269234299650
H          -1.60629700542719   -1.46390855919742   -0.77694279486305
N           1.32539771706227   -1.69723206364948   -0.32006169132976
H           1.84997802174167   -2.50038653966947    0.00660203117368
H           0.45736905754262   -1.98034096950351   -0.81890461850053
H           1.03026890079973   -1.07115298794214    0.49799539195547
H           1.90997979203726   -1.05278611507194   -0.93843875824951
