    26
        -50.46147045  Gyration_radius:  2.59221572742 Dipole_moment: 4.214
 S           0.41329327387703    0.57348473030846   -0.23547195826770
O           0.29520576400177    1.23156430364408   -1.51418885739845
O          -0.75333728731665    1.06432587928897    0.69837287329840
O           0.29635699096903   -0.87638649970210   -0.30477343054609
O           1.63137454296455    0.94441138188808    0.50554863914690
O          -3.31498769949845    0.06857916221973   -2.22097307728613
H          -3.79329519293643    0.14939127951523   -3.04749940390013
O           3.32390405783181   -1.12638250195242    0.87820419604432
H           2.81612217919040   -0.31439922654291    0.67947330288103
H           3.64995407020055   -1.44621055446237    0.03566442631491
O           1.04314923570946   -2.15137443788090    1.86374287499705
H           0.62308247550442   -1.87107339553885    1.01648323486905
H           1.99849429908075   -2.08714807358216    1.65877183091541
H           0.83039526802439   -0.86088137285377    2.58339223201669
O          -0.86785660300998   -0.85399099159058   -2.73363400382835
H          -0.39495059544079   -0.00885117748063   -2.65607284100472
H          -0.57590808439035   -1.32122717206808   -1.93728729002371
H          -2.46310384881344   -0.38142175971348   -2.43847573715592
O          -2.17509389400886    2.19740267845031   -1.07220339725951
H          -2.73403699372480    1.47655067979148   -1.44617810063508
H          -1.41581460999140    1.53978383840134    0.09753007325690
H          -1.35809971701667    2.19235030122099   -1.59408649297995
N           0.74650086036541    0.21532535392213    2.80252617486269
H           1.20292453246141    0.65796132486073    1.93291437357595
H           1.20647412884860    0.48533748800731    3.66596873088549
H          -0.23074714286891    0.50287875182113    2.78225164721180
