    26
        -50.44273657  Gyration_radius:  2.42590745277 Dipole_moment: 4.782
 S           1.90845865617029    0.48545485498560   -0.95456082348881
O           2.04998287808165    1.01920417221472   -2.28134540974846
O           3.11813881673165    0.10437943360663   -0.27860013757206
O           1.08965413821843   -0.92214927485875   -1.17907512008930
O           0.97062463587325    1.23175019984655   -0.11375740790486
H          -0.07830461830215    1.42191221826488   -1.30519249449243
H           1.67153330909259   -1.42437367605062   -1.74168891756167
O          -3.01356940648711    1.14071767487751    0.20931251887745
H          -2.93747696867608    1.93001506356937   -0.33225275658273
O          -0.61272211689544   -1.78687797437084    0.90237913274127
H          -0.46282912924523   -2.70300319793391    0.66558624971717
O          -0.61209620584135    1.23532244614468   -2.11883373500850
H           0.08641238047869    1.15503833056292   -2.78227132146572
O          -0.92335505196363    1.03627134887670    1.76814695448544
H          -0.89919069756422    0.10217596773641    1.99661933018629
H          -0.17425616636406    1.18047018370227    1.15402119174005
H          -2.30627270343838    1.21268903110851    0.91017958769514
O          -1.83090496215070   -0.68492723416166   -1.05549295952594
H          -1.24254751997176   -1.11757409138814   -0.32713947603994
H          -2.45678946780955   -0.02217127624717   -0.54560989440235
H          -1.24849326700155   -0.02294607712000   -1.61140854619918
N           1.65620352906250   -0.89835478408726    1.87048103064853
H           2.22507966028104   -1.58805499244497    2.34752605417268
H           0.29017108216633   -1.42734783775664    1.20069874369489
H           1.52253724437174   -0.12475949049330    2.51153335823769
H           2.21001194116965   -0.53286100854014    1.09074483786367
