    26
        -50.46306734  Gyration_radius:  2.54479381384 Dipole_moment: 3.912
 S           0.86919051070165    1.51228619700534    1.42056731147028
O          -0.25349652233836    1.53056494628910    0.50347734165430
O           2.10594184633592    1.10405826348666    0.75502370226742
O           0.62181073901234    0.72758962845483    2.61345876467109
O           1.08171155401927    3.00550068518020    1.89504937497871
H           1.65837518396743    2.88450684031287    2.64191940491332
H           0.20309734842174   -0.88843500739081    2.44640752603111
O           0.03850201342091   -1.77230194490131    2.04318000496974
H          -0.76840609959811   -1.65852867061987    1.51921081456221
O           0.15303979091322   -1.41677940876501   -1.81345650631778
H          -0.25654819322505   -2.01705055760962   -2.43745200411949
O          -2.95526345958292    0.49732396818241   -1.90443551940744
H          -3.51524860448965    1.24157603456518   -1.68088494107147
O          -0.43449472215949    1.38167674576650   -2.20104284180949
H          -0.30588016488884    1.62523120698117   -1.26644186620419
H           0.03698976999340    0.54654091003989   -2.31347089080502
H          -2.08441046085391    0.88406219431551   -2.16051712879880
O          -1.56901683997685   -0.71487791029792    0.04360005805183
H          -1.13943126874007    0.12530795996401    0.31903548263646
H          -2.28752330375525   -0.42265264038246   -0.55739986897286
H          -0.54647170110985   -1.19996561437786   -1.13378429129856
N           1.89460480735983   -1.41791421590298    0.24225416084091
H           1.42173775282402   -1.51763512558341   -0.67701784698456
H           2.07599010206897   -0.37515758268827    0.41629612256045
H           1.19825823861102   -1.71552705382178    1.00523363359595
H           2.75694169307866   -1.94939981822023    0.28119000260694
