    26
        -50.44273656  Gyration_radius:  2.42595296513 Dipole_moment: 4.782
 S           1.50216415863733    0.88992148309339    1.31956779761631
O           1.67183472684499    2.30045525015148    1.53588411602155
O           2.49391838581565    0.02366929781360    1.89530948743218
O           1.68069783578568    0.71396015177725   -0.30502296398784
O           0.12728391396282    0.42383452187324    1.50913613210152
H          -0.49638255586538    1.69911413347862    0.77392085822533
H           2.56601551720086    1.02860589706639   -0.46165498894563
O          -0.60449767743409    2.45060418391250    0.13725975375339
H           0.16916638524103    2.98795351183937    0.35447701317331
O           0.25344314754581   -1.37851763117958   -1.55535315142627
H           0.93620407137606   -1.46707429414711   -2.22144814201925
O          -3.07438147231278    0.43820507253497   -0.88679696158361
H          -3.30287192090797    1.19882020270675   -0.34692245871557
O          -0.80294010484456    0.93000824826178   -1.85075005923093
H          -0.55582893108021    1.61815269876639   -1.10793638640472
H          -0.29029370832604    0.05212760610418   -1.67716337430380
H          -1.79725710489437    0.72081617946067   -1.60799496065922
O          -1.76554128749415   -1.24549922050939    0.61672531277944
H          -1.08748541074731   -0.68595130068816    1.04839880120690
H          -2.73591441647861   -0.25983258777971   -0.25833609906845
H          -1.29526902292659   -1.76686816993339   -0.04082708469133
N           1.31532324817754   -2.19824041102502    0.69750581775278
H           0.61725253405981   -2.53839023697907    1.34886439147518
H           1.76031844067969   -1.39350906536159    1.14768444393221
H           2.01941844239485   -2.92153150003826    0.60812517371253
H           0.69562279560851   -1.62083400118816   -0.67265246813238
