    26
        -50.44273654  Gyration_radius:  2.42593095645 Dipole_moment: 4.784
 S           0.56328553444487   -0.13828877992783    2.11026463048279
O          -0.04075731468178    0.61905526249671    3.17180008664837
O           1.71930277669614   -0.92105965757062    2.45135170176354
O           1.12160874260432    1.00853956167854    1.07333311778774
O          -0.40104512562916   -0.84429074692987    1.26462844374543
H          -1.41998274655273    0.38782061259633    1.25103623932491
H           1.74250733580306    1.49779865223901    1.60480021835838
O          -1.76110877135781    1.31803384467053    1.24546796632294
H          -1.41944254129969    1.64377217028008    2.08909459040335
O           1.20821716431694    0.35350922153234   -1.67271634134707
H           1.95967331823451    0.93316842720530   -1.80374735188369
O          -2.63771823063443    0.33938724437691   -1.83202723533468
H          -3.31699674852122    0.36632035108200   -1.15383765265130
O          -0.77699323272972    1.81996295584190   -1.00913232798543
H           0.05961212913772    1.23792595482874   -1.16753495015481
H          -1.55905488328205    1.31082167699955   -1.47824213071615
H          -1.05871778037698    1.74185838627988   -0.00868397965577
O          -0.98941899247957   -1.59431539690973   -1.23715439326330
H          -0.78169479932201   -1.43437682879343   -0.29357085949020
H          -2.12766532413915   -0.50598743975926   -1.68433385882422
H          -0.20286111395357   -1.33506165514158   -1.72648550711948
N           2.07011455191405   -1.64822247202839   -0.21502010281673
H           1.52220120646375   -2.48899526034405   -0.35695396084652
H           3.04280771986293   -1.89788312849503   -0.35075841755534
H           1.52876725266671   -0.37606666597673   -1.04154162979880
H           1.95535986278157   -1.39342631024227    0.76996370456019
