    26
        -50.45454423  Gyration_radius:  2.42336427124 Dipole_moment: 8.701
 S           0.67141538909804    2.27979282570986   -0.13175864176183
O           1.96037735175521    2.88379901704636   -0.00997701680309
O           0.44792144668496    1.27735892584371    0.95262779884000
O           0.67759475309462    1.40919250139164   -1.47326718433066
O          -0.48355514303149    3.12516732742893   -0.27320446703759
H          -1.44052724537160    1.88999221844312   -0.66131414487724
H           1.42325621071708    0.79945890486276   -1.45838783859685
O          -2.03170115089789    1.13730538924955   -0.91973847891289
H          -2.48512286808718    1.43424587419906   -1.71051057801949
O           1.87745519198777   -1.07164479318441   -1.54611408386620
H           2.20518137448893   -1.37738083862277   -2.39220595914878
O          -0.85447032370954   -2.10632144784047    1.34123433838743
H          -1.29602129194411   -2.74258200133239    1.90400266809158
O          -1.87905041127983    0.23861856767776    1.65715956787355
H          -2.35875933092746    0.47467644902818    0.84955988536448
H          -1.30718030599099   -1.21796632075155    1.50919684429043
H          -1.05050954565089    0.75783915567653    1.57320720520606
O          -0.72067086483577   -1.26065242012421   -1.36114019234714
H          -1.10941093632358   -0.36587491269964   -1.28519228374979
H           0.88125781489528   -1.16629120239283   -1.57829642149185
H          -0.89055170825440   -1.69396071809519   -0.51295392116690
N           1.58328939210281   -0.96876295090414    1.12155112133429
H           1.96062251408548   -1.17366497358059    0.18252894845968
H           1.17152729364387    0.06153475197767    1.07226410257439
H           0.75812817261550   -1.57805123824177    1.30708069761689
H           2.28950422113722   -1.04582810076443    1.84364799412834
