    26
        -50.44273656  Gyration_radius:  2.42587269649 Dipole_moment: 4.785
 S           1.84285119766296   -0.16566685372609   -1.16858104461228
O           2.93676815682603   -1.04347098284334   -0.85539966835231
O           2.05265119388084    0.77318816610533   -2.23627778459899
O           1.67856047392320    0.75951344959923    0.18019341362971
O           0.54203064426948   -0.83573792979781   -1.21679958871827
H           0.85903034839107   -1.72863102052549    0.07107707772870
H           2.52218132555845    1.19667267177455    0.24759183538889
O           1.21455142503477   -2.00047952192759    0.95505421419316
H           2.16621866918607   -1.93731400262890    0.79744033548510
O          -2.05757731399128   -1.87285670102305    1.63873443027480
H          -1.65589834965544   -2.73370508127148    1.49851317237476
O          -0.90871792286288    1.70520836124526    0.80592439194112
H          -0.54094916352382    2.48745090469836    1.21901153368249
O          -0.16653435088210   -0.30853530346722    2.19356003593856
H          -0.36062912402151    0.50240319189761    1.58648186521649
H          -1.00973460291545   -0.91989630059566    2.11383559528100
H           0.55710002645028   -0.90534567810253    1.73921032808666
O          -2.06393809947676   -0.61213151504461   -0.64603588049724
H          -2.20939648154007   -1.48355525733566    0.73205590111217
H          -2.14040219133579    0.30345236659009   -0.36109486596893
H          -1.14421844795488   -0.71634180715323   -0.96598075200847
N          -0.43289623191894    1.93852391679580   -1.76183473995551
H          -1.10195793827407    1.42444139158766   -2.32337268241834
H           0.48254468553527    1.52136553364192   -1.95217430648857
H          -0.41137094449901    2.88787761115744   -2.11558459754852
H          -0.65026697386491    1.76357037033010   -0.17554821920068
