    26
        -50.44273652  Gyration_radius:  2.42587669285 Dipole_moment: 4.783
 S           0.97723542301858    0.78616443557366    1.79319931409531
O           2.28891205614053    0.29623710277469    2.11729689232445
O           0.34898148154466    1.64141421277501    2.76225423161537
O           0.02224765333633   -0.55154917525727    1.76714368465313
O           0.84625884807994    1.25903356965224    0.41386011425771
H          -0.67670613072663    1.69987562985004    0.62015216296429
H           0.07432111352858   -0.87301843173995    2.66230353363296
O          -1.61311510080525    1.70231392183856    0.94388043185962
H          -1.47872535987327    1.81943816597265    1.89398512156338
O          -0.15609983406691   -1.97935784430348   -0.66406366350729
H          -0.29734416114721   -2.80012600224944   -0.19051897903668
O          -2.09264735161818    0.92995557260790   -2.27611751044957
H          -2.26295339791298    1.83241155502235   -1.99553657018698
O           0.48055052934845    0.52091399680272   -2.13329364079202
H           0.52092682378021   -0.43888452320034   -2.08339614597436
H          -1.10297757723154    0.85170460487073   -2.38203678880273
H           0.71283847597856    0.84482973719767   -1.23874752627828
O          -2.16315127194244   -0.47069164357693   -0.18706686063871
H          -1.96134920671633    0.33237608849900    0.44603901544292
H          -2.26090493671671    0.01728485206857   -1.10544454682232
H          -1.31331740534632   -1.04837378851020   -0.27565613874732
N           2.32273405509075   -1.27260244239739   -0.18437756210663
H           0.77827565266449   -1.67045949752041   -0.40890408589006
H           2.70501571080085   -0.69147995324716   -0.92155660830596
H           2.32905585417374   -0.70056542398169    0.66478992422993
H           2.97193807655415   -2.03684470953178   -0.03818781909309
