    26
        -50.44273655  Gyration_radius:  2.42590328357 Dipole_moment: 4.785
 S           1.78784057581488   -0.13138926335187    1.25518542333618
O           2.03811951905739   -1.36580236028075    1.94735146490722
O           2.65405757745811    0.97197244065069    1.56742939860988
O           0.31267036895719    0.35964607492471    1.78898324758213
O           1.53395050040277   -0.29704215733152   -0.17711734666239
H           1.38763739457064    1.27648325575649   -0.41942848413420
H           0.45279000076510    0.49363136726874    2.72159842563853
O           1.16259069171583    2.22886174890516   -0.26434453271319
H           1.71624965764787    2.42572360129374    0.50324581781063
O          -1.02853342697031    1.48057962989026   -2.67893205755906
H          -0.23873989790887    1.97158826012446   -2.91822110898479
O          -1.95927205952143   -0.60881627171681    0.41682471609042
H          -2.48240300352363   -0.56548712454621    1.21821184151923
O          -0.29802322973517   -0.93683398980938   -2.02147813484542
H          -1.04417145100776   -1.22540837017980   -1.48732953651364
H          -0.75173050972109    0.52434608447707   -2.60359726909632
H           0.43862254983517   -0.78886672897048   -1.39334200508978
O          -1.30763946967360    1.78493508498068   -0.19688381824492
H          -1.33954590556899    1.73291336617018   -1.23961823476656
H          -1.48536346609931    0.82244028806778    0.12865471056344
H          -0.30358991418895    2.01525842696137   -0.03849812772163
N          -0.21099881263577   -2.52768972493809    0.78465644908590
H          -1.23384854440769   -1.29785645434539    0.59733531012766
H           0.09776154552743   -2.93704433629486   -0.08962188435749
H           0.62049919170605   -2.11800202567874    1.21949161960793
H          -0.51892987247661   -3.28814084202819    1.37944411578404
