    26
        -50.47071317  Gyration_radius:  2.41595730143 Dipole_moment: 4.161
 S           1.60942377818402   -0.40955597527834    1.16464037261444
O           1.65759692357825    1.03093304708285    0.97439954655965
O           1.84454957822014   -1.12471300628089   -0.09128352562416
O           0.42146898197636   -0.87731887747455    1.83708826617512
O           2.82744274610324   -0.76502538124090    2.11154147992218
H           3.53463554651791   -0.25306558987255    1.73453081859788
H           0.61204095789717   -2.20734306284584   -0.22838309750245
O          -0.23922509341897   -2.68872422175955   -0.10674869677527
H          -0.33404729761440   -2.71368315945484    0.85208114647544
O          -1.96967962029894    0.28234646977505    1.65848489029493
H          -1.15349654868242   -0.16774764543021    1.95690844463895
O          -0.78147292092430    1.19852426299257   -2.08474217529429
H          -0.92914813076225    1.56834170398215   -2.95578725706329
O          -0.68318450940593    2.31597810807902    0.56714927056281
H          -1.65884294427959    1.18556846353169    1.41104042438877
H           0.19573891039673    1.96401629151626    0.80589976607509
H          -0.78404745175873    2.15599317976826   -0.38064393551235
O           1.77304685546029    0.94593974565784   -1.68679500315432
H           1.88004017850327    1.44798040077992   -0.86361204053192
H           1.88415066803569    0.02835011500024   -1.36778600907116
H           0.21080415075912    1.08773226043101   -1.99505197875306
N          -2.00273731642851   -0.80713861539042   -0.68770268303996
H          -1.58838565825602   -0.09499200185560   -1.31932679739998
H          -2.89398435641545   -1.13267634816356   -1.04450604821457
H          -1.32278367395390   -1.61633332795751   -0.56065188273577
H          -2.10990376345960   -0.35338681557570    0.29925669438224
