    26
        -50.46581723  Gyration_radius:  2.4368093817 Dipole_moment: 5.828
 S          -0.00721478336615    2.21498454547785    0.60997533011587
O          -1.27123271384418    1.66850801141310    0.13046132250301
O           0.78587437998810    2.81046661252452   -0.43128834969091
O           0.73330120342545    1.22516048759541    1.38928816901462
O          -0.36995236136456    3.37408676349715    1.63315252440099
H          -0.44939017739260    4.13066961093061    1.06102555025103
H           1.66365912948735    0.73912965061065    0.15430723015546
O          -0.02919828582059   -1.17008901450467    2.17795849427311
H           0.28996230817073   -0.24353483699666    2.11685138007647
O           2.11554627308416    0.36673250166158   -0.64174538589835
H           2.59444967892271    1.11238277475391   -1.01049206731885
O          -1.10753688925058   -1.91487917225082   -1.54022087904908
H          -1.47362561679961   -2.32111404307054   -2.32602175144667
O          -0.32593630902933    0.49706888883248   -2.03251796305276
H           0.61210714601806    0.55543765101377   -1.79396370505218
H          -0.86414019829996   -0.97309996369512   -1.79491234083835
H          -0.77891014403226    1.04622922002556   -1.35913917665732
O          -2.23712892138428   -0.74213082046072    0.83265938947287
H          -0.96795099943927   -1.10822946300689    1.85848022596332
H          -2.02201521086553    0.19065287404037    0.63083823740200
H          -2.10013968645009   -1.22425676206885    0.00627546384583
N           1.06371320980574   -2.07248434735515    0.05033513455446
H           0.26228202025615   -2.20068083213368   -0.60325913678126
H           1.64541608962284   -1.29347146881363   -0.29297017246916
H           0.62947367363312   -1.74600434326853    1.02900339078192
H           1.60858718492229   -2.92153451475414    0.14591906542608
