    26
        -50.45514024  Gyration_radius:  2.75169708445 Dipole_moment: 5.660
 S          -0.22585522619795    2.83315009699423   -0.58562405143498
O           0.63927140411509    2.27685529964972   -1.63369496255789
O           0.17971693239798    2.43286468673491    0.73758070555192
O          -1.62685347974071    2.56057327624954   -0.87685820086138
O          -0.05022524552304    4.40772535561538   -0.67335441315172
H          -0.36102170276876    4.60012455544249   -1.55294653951841
H          -2.00751659952514    1.03363186001403   -0.80142226351361
O           0.26148438163818   -2.95232162964757   -0.19255178941907
H           0.15958400561459   -3.90409239892529   -0.16715431407668
O          -2.16787126856638    0.04833664784659   -0.84692657577148
H          -2.94363964138412   -0.06104190555773   -1.39864668962378
O           0.89201476948267    0.05132367796562    1.57993880509675
H           0.70558705877921    1.00790748944284    1.46120295662215
O          -1.36646291049121   -1.35234844386595    1.42769790660760
H          -1.87351183081693   -0.80727277426814    0.80848145585101
H          -0.93841642940750   -2.03030509340680    0.87737643040904
H           0.02558486641953   -0.37014073582982    1.78813145597543
O           2.39752024495448   -2.17477106953436    1.27738892186031
H           1.08272206158074   -2.74788972843222    0.30360130844203
H           2.04809552271785   -1.28814923256127    1.48527032221094
H           2.61376744841904   -2.57822494657421    2.11931563852998
N           0.52684291732601   -0.22110729728588   -1.04892285678422
H           0.80057662491255   -0.21980845445131   -0.02622629930908
H          -0.49605537908647   -0.38901038602683   -1.09728537381884
H           0.68825022201142    0.77884387432919   -1.40461245028977
H           1.03641125314197   -0.93485271391470   -1.55975913704043
