    26
        -50.45513997  Gyration_radius:  2.75150490282 Dipole_moment: 5.659
 S          -0.13396807069168    2.73375519846657    0.96359180901941
O          -1.36392071442944    2.02807990517394    0.70905420758626
O           0.75015461087605    2.76724448904668   -0.20831943557682
O           0.58461371735233    2.25491660676928    2.13672636406182
O          -0.51358547881106    4.24570212290879    1.26047573358061
H           0.33387497845572    4.63459797803961    1.45532894169109
H           1.00943705952803    0.74050137310892    2.04328541998919
O           1.34833290040855   -0.18629745470419    1.88600664280172
H           2.09433396815939   -0.29175949376352    2.47806967545485
O           0.88057792204412   -2.58318532217196   -1.17099126030795
H           1.13244051022560   -3.48784292888771   -1.35826075325727
O          -1.71822560600201   -0.25758049006095   -0.53192359154302
H          -1.80711739920936    0.61354607103053   -0.08792790445803
O          -1.25151334857631   -1.84835909815496   -2.66906473688780
H          -1.58492007494940   -1.18509989373519   -2.03635958550450
H           0.14978632705415   -2.36520352909566   -1.78795742248959
H          -1.98447414227146   -2.44109883755217   -2.84189369252254
O          -0.61128013720639   -2.02070303252789    1.12915900519022
H          -1.57097795246636   -0.91429166287315    0.18838506480733
H          -0.03626759350969   -2.36420047179885    0.42408806762646
H          -0.04492961619959   -1.43729118264724    1.65504619988075
N           0.88963407264060    0.26165596182878   -0.75306978338954
H           0.91553374073045    1.33135730458631   -0.66576358287650
H           1.41460772698762   -0.10729355409729   -1.53942481176127
H           1.25032010376434   -0.11572492804031    0.14375288029152
H          -0.13246750391251   -0.00542516083743   -0.82201344140428
