    26
        -50.46200308  Gyration_radius:  2.50518565881 Dipole_moment: 4.548
 S           0.07084572392898    1.59535375094096   -1.84435545686805
O           0.27446659258064    2.15021496191879   -3.14240516181138
O          -1.16396677431415    1.98825883016676   -1.17359321852221
O           1.24858946337769    2.24395971496783   -0.93003807026247
O           0.28319574912496    0.15523499131095   -1.72392312802056
H           1.48608411261105   -0.50586926132556   -0.87646482293974
H           1.43793430236066    2.99543597663919   -1.48069813937478
O          -1.35907474493712   -1.91941877362737   -1.13109431049017
H          -0.74883208706541   -1.33100467027729   -1.60959992471858
O           2.17400748588890   -0.94275561288039   -0.31229795848646
H           2.87189899131337   -1.22020973916341   -0.90661031663201
O          -0.58292401326411   -0.17451742769190    2.42569802582282
H          -0.65017459924874   -0.00574972169383    3.36595143713050
O           1.57909573283299    0.98104665797912    1.52094308741856
H           2.01494977365710    0.24504079838513    1.05748801491950
H           1.40182266242555    1.62342116362235    0.82021690515082
H           0.23677000406080    0.30260926896121    2.11492271674829
O           0.23781900320239   -2.46999710810558    0.94142386108178
H          -0.80887594605769   -2.34411998600668   -0.43214823082283
H           1.04240013883351   -2.07711620729704    0.56339521362730
H          -0.07564389318063   -1.83394307633987    1.59935309036070
N          -2.21888656278445    0.11165659131208    0.24969454818157
H          -3.21477690872227    0.24491837091402    0.38323597534599
H          -1.80617457788200    0.92110500502025   -0.32189153286979
H          -1.72221834662361    0.04965854050715    1.15685690805817
H          -2.00833128212127   -0.78321303823709   -0.31405950202400
