    26
        -50.46200309  Gyration_radius:  2.50510776843 Dipole_moment: 4.545
 S           1.13095633126036   -0.55331377744869   -2.08941778681058
O           1.53335593112773   -1.26037440004819   -3.26087886725225
O           0.88592149886909    0.87452165196870   -2.26366335908090
O           2.42179396153921   -0.62197581779443   -1.10323273247999
O           0.05814270926341   -1.16554694909621   -1.30981328047742
H           0.26009574700054   -1.77085223499257    0.17177543696643
H           3.07834276236576   -0.80668145638233   -1.76550030096971
O          -2.47572307514578   -0.40085131087760   -0.72067630223932
H          -1.71974545106105   -0.90453416713390   -1.07049812102603
O           0.33695838162084   -2.09146237667230    1.10649034626071
H           0.40382400224564   -3.04561867181013    1.05840820786979
O          -0.14447878467437    1.78793821093579    1.74353856756414
H           0.08224318721162    2.45383269245101    2.39331353434560
O           1.86090306851199    0.12879847078194    1.51086332577139
H           2.21131540760327    0.07795428982153    0.61104869666985
H           0.65258665940580    1.19248754286292    1.66487797551408
H           1.42024710465179   -0.72917145528341    1.63816124735379
O          -1.81267661603983   -0.52462371905301    1.86644431303908
H          -1.36436135591355    0.32354435519902    1.99030698677621
H          -2.44544808125549   -0.53901624912152    0.25480666060209
H          -1.10292570725979   -1.18055525889931    1.76333882829758
N          -1.06281707667637    1.78116470436080   -0.83509620575064
H          -1.46719421498528    2.62350393374940   -1.22790024115425
H          -0.73198386615598    1.93858204303307    0.13403330737561
H          -1.76975427706704    0.96684121095452   -0.82416875978828
H          -0.23957824643622    1.44540871849566   -1.43656147737598
