    26
        -50.46200309  Gyration_radius:  2.50512502441 Dipole_moment: 4.547
 S          -0.58733489787097    1.60459553096161    1.74110610170715
O          -1.11335561211048    2.15666747885503    2.94635749437676
O           0.73833600923021    2.07544019407902    1.35390394102351
O          -1.56894110074681    2.16137221943909    0.57069389833642
O          -0.67273231998183    0.15211429124495    1.61232697868248
H          -1.60888001985477   -0.59868893532153    0.53443429888617
H          -1.92600528237201    2.90324781326732    1.04596526107357
O           1.12303969456291   -0.15768458978897   -2.22865198304135
H           1.38880997432920    0.00542541671925   -3.13407844261570
O          -2.12248371896932   -1.08773182464406   -0.15801062283905
H          -2.91595463202872   -1.40768028912709    0.27241729014502
O           1.19249904817029   -1.80951214868731    1.45398111115706
H           0.45320736155157   -1.26003781468317    1.76892992396609
O           0.14115584674237   -2.48963808996416   -0.90838616816185
H           0.84229692072721   -2.27817821509844    0.66068025763947
H          -0.75161864843534   -2.14960691451670   -0.72965785706882
H           0.55236813983654   -1.83976059548294   -1.49516251617416
O          -1.25757461231165    0.85447707796359   -1.85964891674319
H          -1.28448221608355    1.51458573484563   -1.15353107119003
H           0.22517617809538    0.26470722324210   -2.12121786352534
H          -1.73751743634145    0.09471304682151   -1.48699848701920
N           2.20621386921231    0.26257899959282    0.24992813977564
H           1.93118778181274    0.15755611296258   -0.74342754579264
H           3.19573351857060    0.46318850781575    0.33915524765407
H           1.62366494306295    1.04704113575851    0.69433699408869
H           1.93319121120933   -0.63919137625532    0.77455452566331
