    26
        -50.46200299  Gyration_radius:  2.50521479255 Dipole_moment: 4.552
 S          -0.93977836261648   -1.08849240678882    1.97093494906472
O          -1.18061055575064   -2.05094572902680    2.99548624565076
O          -0.90227106676798    0.30391391877900    2.40548706376227
O          -2.24831889671991   -1.17412828458816    1.00965701224654
O           0.17655396729398   -1.37517748250921    1.07363427718473
H           0.00192219147667   -1.72976031183408   -0.49025786932096
H          -2.84122418743382   -1.57253469088628    1.63694768612277
O          -0.06722444952352   -1.88623588087822   -1.46652441015264
H           0.01415414459266   -2.83204265018799   -1.59323203565549
O           2.53809074093656   -0.13181291011182    0.59390798810693
H           1.88313313523713   -0.80204720969129    0.85730230719171
O          -0.20510587260747    2.07071978942384   -1.38620790385935
H          -0.55758111913812    2.79898954833752   -1.89849049750677
O           1.78556719154193    0.10799650644238   -1.96044900454985
H           1.20965075889852    0.88404856232075   -1.91855734367265
H           2.48515132805467   -0.09587405702291   -0.38970928189282
H           1.18801589947152   -0.65844958059247   -1.96814113535253
O          -1.92500856071180    0.10418564908479   -1.43435088897666
H          -0.89890820599730    1.35357066860194   -1.40736023017354
H          -1.36572915541169   -0.63764299719783   -1.72314828982695
H          -2.22352405371214   -0.16024832073675   -0.55340977162367
N           0.81824503334557    1.74537216556944    1.13185975520431
H           0.08389886887352    1.18281746148064    1.67634405862460
H           1.10856787973015    2.55707229909895    1.66502946978645
H           1.63889064584409    1.06730938831052    0.95927106171620
H           0.42344269109250    2.01939655460407    0.21397678789927
