    26
        -50.45490174  Gyration_radius:  2.54809849658 Dipole_moment: 5.631
 S           1.13539045262123    1.86661534682818    0.90294464822860
O           0.93745063888029    2.83634512662527   -0.14311187761382
O           2.33583531748501    1.04275563374480    0.70355908895312
O          -0.01117354354900    1.03228626092150    1.19414943319870
O           1.41652282544008    2.71040786592999    2.22817978013398
H           1.76332415545871    3.52268093069603    1.87269793236877
H          -0.37555530156394   -0.42592036308547    1.68503956779295
O          -0.45402612332498   -1.38754234708744    1.93140798983941
H          -0.79101380174087   -1.40236985929236    2.82790839565199
O           0.35745465909188   -1.16404862213492   -1.92779094027408
H           0.68569780387288   -1.25210009046075   -2.82327421955412
O          -2.94063613512879    0.60114777820478   -0.83115610531904
H          -3.58072946474574    0.52715429733767   -1.54051734549591
O          -0.46902390742189    1.24334337128730   -1.76463232315181
H           0.03364747723458    1.87013272053508   -1.21081040854404
H           0.04661715668089   -0.19586240113087   -1.84915471188907
H          -1.35802136369786    1.17432791813133   -1.35539954704555
O          -1.92042762400065   -1.87044640953051   -0.40471045981663
H          -1.51862030332942   -1.78833464448167    0.47400203643762
H          -2.67839422674722   -0.31628496607822   -0.59982872047643
H          -1.19241834430309   -1.77274284412284   -1.03483752600476
N           1.73181726771682   -1.40389498587943    0.33654565583581
H           1.26641427727004   -1.40062410134020   -0.60736811024949
H           2.04220340191661   -0.37179016465310    0.51862674650438
H           1.01673650694121   -1.63602936362270    1.04843590953299
H           2.52092820892348   -2.03920608738674    0.36909508097050
