    26
        -50.46200304  Gyration_radius:  2.50523236709 Dipole_moment: 4.549
 S          -1.77202115217169    1.13241909268552    1.23687944259979
O          -3.06458053251154    1.59201190580892    1.62712435609672
O          -0.89967587013537    0.69695710551620    2.32244001952853
O          -1.03296179441912    2.44778062090017    0.63076904074310
O          -1.73986371120880    0.17145915655560    0.13730188497136
H          -1.12019303887019    0.49301270011030   -1.31692153826275
H          -1.57759855860146    3.10444510447618    1.05019289437151
O          -0.68960633968095    0.63765185553071   -2.19785324490758
H          -1.39746590556182    0.82571067885689   -2.81493220194841
O          -0.97000993010296   -2.42273302769652   -0.03833345486310
H          -1.51777541810036   -1.61815163947095   -0.05233501727279
O           2.47927406075192   -0.32477522768474   -0.02593141462357
H           3.42381479076470   -0.16858241482135   -0.00425565603679
O           0.79958123670307   -1.67435177933362   -1.89768124812541
H          -0.38387349729003   -2.34636050574414   -0.82714045690466
H           0.31276804170686   -0.88861120451928   -2.19806678051145
H           1.52206410327271   -1.33688525861615   -1.35014775214582
O           1.28501198638617    1.87162374300370   -0.78589453483752
H           2.05975066021207    0.54029236143610   -0.29384368431612
H           0.73091594854228    1.54965813288962   -1.51788785085915
H           0.64586482133286    2.19967394915830   -0.13861550945105
N           0.60404073089041   -1.30867383400260    1.70877700414998
H           1.41728996661563   -0.97223075281106    1.16206379758169
H           0.00397110058902   -0.46735213613787    1.99916700632766
H          -0.01860490240490   -1.90330429149981    1.05942273374953
H           0.89988321329741   -1.83068433459018    2.52570215493559
