    26
        -50.46026518  Gyration_radius:  2.46559575982 Dipole_moment: 6.803
 S           2.00625690434909    0.90294552661389    0.48431902168462
O           2.20094723617720   -0.28082077831043   -0.37220287783155
O           2.89206052872268    0.91952349082393    1.60329307122085
O           0.51830870033316    0.67587332457588    1.11062769553181
O           1.85683358208374    2.11195899087925   -0.28727268300106
H           0.58299531679261    2.09166968404535   -1.23391090123822
H           0.67092011210971   -0.07963995818430    1.68690214003212
O          -0.20715083061664    2.03108232862476   -1.84073432430535
H          -0.04733247215274    2.67347283658623   -2.53384870467781
O          -2.86927724778300   -0.53063387584279    0.74054657271365
H          -3.16281404476066   -0.49668049231505    1.65189677297189
O           1.42791921944287   -1.84154092122900    1.49070371688577
H           2.12959347475885   -2.06007009631343    2.10576616456568
O           0.25295994509918   -0.62231196171634   -2.04067023393394
H           1.11013648539783   -0.51010342206369   -1.55925297129734
H           1.86579834960485   -1.33396452881711    0.75369965409437
H          -0.08941674526985    0.28978622231539   -2.11706647129158
O          -1.85053401487152    1.84501975183837    0.33757182111946
H          -2.57917014792478    0.39681606610945    0.51676474301674
H          -1.03220772735870    1.67523593168213    0.82670322175825
H          -1.53948167815193    2.01978880920122   -0.56612960316522
N          -0.83467640634535   -1.99641728698933   -0.13875019180855
H          -0.07910397311429   -2.09015243865578    0.55504380117902
H          -1.64795463095482   -1.45643098498764    0.26475867619485
H          -0.43685373465325   -1.42337516765538   -0.98308575249597
H          -1.13875618089034   -2.91103106020680   -0.45567233789666
