    26
        -50.46026529  Gyration_radius:  2.46588059586 Dipole_moment: 6.806
 S           1.96248525559020   -0.43548555608352    1.01868616173798
O           2.71649610781732    0.12142840754380    2.09501981789844
O           2.22235393873483    0.24405848821178   -0.26334053598599
O           0.40801755868521   -0.06081139761961    1.33680626839368
O           1.93206769031533   -1.86999947243497    0.87590403839643
H           0.77093759797337   -2.37497002975934   -0.08139540464382
H           0.47540853717570    0.88278471936354    1.51377367377516
O           0.05205530431696   -2.65404310250145   -0.71506731804322
H           0.30467683383952   -3.52674651649373   -1.02032562547079
O           1.20460827541543    2.41596042239740    0.60325470589966
H           1.82608560346057    2.93889652252572    1.11196752599959
O          -2.94826390914315    0.59607254107406    0.15567403126453
H          -3.34351393920355    0.95657198270398    0.95046984562741
O          -1.83068232255590   -1.62133221512990    0.97929024363780
H          -1.07670568000801   -1.18866273236818    1.40599750059110
H          -2.61138808273984   -0.30765335546200    0.40901632397312
H          -1.41620606612175   -2.16393142038403    0.28814909709511
O           0.46508930249402   -0.35266619292879   -2.06606899472802
H           1.26556505002226   -0.17094017190596   -1.51345808966323
H           0.15658852884450   -1.22290354491407   -1.74586167631917
H           1.73570273692018    1.66439230652386    0.22165978043978
N          -0.86340801123864    1.64990249867096   -1.11094190543700
H          -0.35880608272524    0.78725232840055   -1.55934381300482
H          -1.15146045168603    2.29669091456352   -1.83764209399098
H          -1.70390591709792    1.29345403347336   -0.57964775664649
H          -0.19379786911764    2.10268054252950   -0.47257579080404
