    26
        -50.46026513  Gyration_radius:  2.46589133315 Dipole_moment: 6.809
 S          -0.42661390423760    1.56996626710988    1.55945157659418
O           1.03026984639276    1.36918399840616    1.45734623923548
O          -0.88176670836285    1.59220355179620    2.91200232149401
O          -1.04252184545399    0.20482335851749    0.91506707318213
O          -0.89662268013287    2.59724086567934    0.66331436298786
H          -0.65030241716255    2.25148397146708   -0.86599952592156
H          -0.78923305690803   -0.44583974541065    1.57723716686499
O          -0.83012721685119   -2.46519003940027   -1.51519403926278
H          -1.48961574185909   -3.06498913173929   -1.16413715776187
O           0.84979578040972   -0.97502583265127    2.44460317386696
H           0.83380305829619   -0.97491199570080    3.40278822340662
O          -0.44972175286563    2.01654273324527   -1.81511532330582
H          -0.46536057208361    2.84709797668949   -2.29317634238128
O           1.77473630877650    0.75699281286668   -0.94390245852216
H           1.04914367445068    1.14599772283198   -1.47027665919564
H           1.62880692098153    1.12511036254546   -0.03707297033653
H           1.03815022495320   -0.03356448707656    2.17860748905397
O          -2.08061369865693   -0.16913454584920   -1.60663036260920
H          -2.03095812793281   -0.00230957287508   -0.65401914706871
H          -1.57673906467463    0.56783364475717   -1.98999076182357
H          -1.30700624398928   -1.60357406789407   -1.67209384857692
N           1.34843732323956   -1.68559393943959   -0.20867703476237
H           0.48042737022093   -2.05078748289073   -0.68730399718885
H           1.54236465042904   -0.67691310379586   -0.58874318773389
H           1.19968136798230   -1.60988880435783    0.80786722861124
H           2.14158649504507   -2.28675450683467   -0.40595203885071
