    26
        -50.46026511  Gyration_radius:  2.46588906035 Dipole_moment: 6.807
 S           0.73403168755137    1.91229176077853   -0.93956513608632
O           0.49780376606182    0.91167185453128   -1.99595612988384
O           1.98666208454814    2.57991249126052   -1.08911993541937
O           0.88043034347066    1.00966384874331    0.41017759307042
O          -0.43815736962556    2.70961744894925   -0.67597412149510
H          -1.66634482565350    1.85500692807229   -0.14651162401326
H           1.71476237193051    0.55961807877526    0.24476364147097
O          -0.09109890823231   -1.88943864669523    2.34294425020350
H           0.59230921236432   -1.88317211984167    3.01435797207710
O           2.44792307243941   -0.51480179839576   -1.18032528878156
H           3.29174066085432   -0.22384480171265   -1.52923988437652
O          -2.42708301556519    1.28216047102887    0.15245792883450
H          -3.21786153255232    1.79376569281227   -0.02509637328560
O          -1.45631705940483   -0.68476908691119   -1.42303554066331
H          -0.80157204469054   -0.05193955424334   -1.81027794331787
H           1.76008973429316    0.03109078592311   -1.65096854299362
H          -1.97598985747713   -0.13106105348282   -0.80802062634987
O          -0.99855310208188    0.56407865041508    2.37157883681871
H          -0.24432451075918    0.94426936606879    1.89797084235532
H          -1.74776880124465    0.74041108872535    1.77865885535266
H          -0.53808111245135   -1.00025488490361    2.40610006226671
N           0.35604957858533   -2.12210711687870   -0.26622569512159
H           1.23918540133101   -1.68199864217849   -0.56208743342527
H          -0.46236670472187   -1.56103455137774   -0.72962200893282
H           0.32494216533849   -3.09007207519390   -0.56872635770460
H           0.23958877568277   -2.05906414431060    0.78174266942285
