    26
        -50.45406820  Gyration_radius:  2.52433828965 Dipole_moment: 5.882
 S          -0.82946951483381    1.67388995753421    1.32036916693003
O           0.53259776547851    1.79386417552049    1.85834619906442
O          -1.74744623379884    1.04391642941599    2.23077168727346
O          -0.79896834140395    1.11404549501197   -0.01462952209217
O          -1.34671905881352    3.17663725139040    1.14775765363708
H          -1.80768340241284    3.32018231289834    1.96822573158083
H           0.14359974057033    1.18473173335720   -1.27299560542017
O           1.26509948007488   -1.85971867854693    0.40465355125804
H           1.61150619104861   -2.74635598572870    0.50995091607870
O           0.86996546019236    1.19616283318196   -1.95583128112882
H           0.65496055001649    1.90967508697692   -2.55751390805400
O          -2.21343255792132   -1.69752660443075   -1.28021061013641
H          -2.68742599229149   -2.53034122491292   -1.27034753896269
O           0.35019005983620   -1.58782895327908   -1.98804525183688
H           0.89205173361072   -1.80976327080172   -0.53488710271714
H          -0.62414037823463   -1.63994152737051   -1.84062563372204
H           0.52339317739966   -0.65645213445434   -2.18630538051556
O          -1.46456912832227   -1.46023951625446    1.27503906024879
H          -1.64585192190403   -0.58256322637888    1.65569274731822
H          -2.02886361099286   -1.48458416338248   -0.33421830485974
H          -0.50568124453663   -1.52281067386127    1.17313494741393
N           2.20859288940255    0.63393333756489    0.33149268383087
H           1.95419244692839    0.91917104716728   -0.63235145385388
H           3.17838340818587    0.83370688515197    0.54819750993629
H           1.53100696572411    1.16226564608673    1.00858753107239
H           1.98471152686652   -0.38405625182947    0.43574219748454
