    26
        -50.46147028  Gyration_radius:  2.59077251305 Dipole_moment: 4.224
 S          -0.10864960816430   -0.09741152495606    0.73543066072525
O          -0.55481314034681    0.91210501494935    1.66474275279038
O           0.85148835064829    0.38750432031775   -0.24649038561330
O           0.41179764330872   -1.31010040623781    1.39023138291040
O          -1.34726308947270   -0.61959511442241   -0.08142809946750
O          -2.14156792381054    3.20651111367235   -1.00158550219201
H          -2.46029454440054    4.10190023762076   -0.87881897619469
O           3.03488746830917   -1.73648942348372    0.91018515018398
H           3.56145539987659   -1.02654477007622    1.28053981869198
H           2.11941783162866   -1.58066236106828    1.21726306714036
O          -2.98832116567914    1.20713772978519    0.55913731350685
H          -2.82146879549460    1.93597428724014   -0.08343352032282
H          -2.09364500892646    0.04523225251659    0.08194055364284
H          -2.37752076002565    1.36291041343960    1.29571554965629
O           2.09427026110937   -1.48900367034709   -1.59537338400259
H           0.96679962155310   -2.38704486559277   -1.20794806835387
H           1.67381219019526   -0.65090760761232   -1.28936023435922
H           2.73147507674215   -1.68191377161584   -0.87744327090832
O           0.24871774835377    2.97882932348488    0.15454900102965
H           0.71189625010122    2.27441760840164   -0.32256475043348
H          -1.21346601504892    3.19582524136382   -0.66380233546289
H          -0.04096550324222    2.51916230270972    0.95971243995393
N           0.12366146284099   -2.83291238810116   -0.65678491879985
H           0.19813968459074   -2.34517323905445    0.30068814957790
H           0.18085769542329   -3.84372483774493   -0.58605899732552
H          -0.76070115008149   -2.52602582516142   -1.05904338638652
