    26
        -50.46026517  Gyration_radius:  2.46598637166 Dipole_moment: 6.803
 S          -1.46282445878502    1.51661917805776   -0.79932576731483
O          -2.01604435372252    0.16331837641488   -0.98739271928678
O          -1.58158518269994    2.32328249561250   -1.97082627813442
O           0.13506977957362    1.24978655191250   -0.61513365936917
O          -1.84832529577729    2.08915893706906    0.46669928258739
H          -1.30873809656421    1.26487942673241    1.71140801048435
H           0.37897463016775    0.95787786113788   -1.49905899533225
O          -0.98206530524833    0.70381360886111    2.46948330757466
H          -1.54031171462975    0.93056055482423    3.21482645558397
O           2.82993035728340   -0.82945512893424    0.61391710866363
H           3.57567847365084   -0.42476346610470    0.16897101930647
O          -0.23704220929116   -0.39652316641436   -2.72729794236742
H          -0.46525595062331   -0.08542188761270   -3.60461722514868
O           1.59961335435790    1.20014927383617    1.71459139848186
H           2.40246538726963   -0.09869263900248    1.14082117738183
H           1.20113105685726    1.52035216897882    0.89214334986705
H           0.83022737378126    0.97627357234359    2.26402217268490
O          -1.29449024098814   -1.46440614063590    0.88993737645291
H          -1.11421980283175   -0.84008554301272    1.61977119619211
H          -1.74882079653569   -0.90542185974167    0.21153204440437
H          -1.04264438651264   -0.23050876621314   -2.16541758519523
N           0.75233170449373   -1.93696708608422   -0.61858404319452
H           0.51460305089810   -1.46698637690619   -1.50382929336329
H           1.61475635088983   -1.50649499979619   -0.18660229670083
H          -0.08319426475348   -1.78004633957596    0.07195976355007
H           0.89078051974435   -2.93029860574135   -0.77199785780530
