    26
        -50.45553735  Gyration_radius:  2.4175412578 Dipole_moment: 9.602
 S           0.89815437048416    1.88936553620851    0.84181705632755
O           0.35476233851284    2.36279830038928   -0.42514621031081
O           1.99663566432230    2.63947421562794    1.35589254250506
O           1.49424927858872    0.41582659711350    0.49079120045080
O          -0.14921205509824    1.55844488305508    1.80716750964884
H           0.08385210158896    0.10797575253862    2.40820364999894
H           2.26535245144194    0.61081104586150   -0.03209127323876
O           0.31836805564138   -0.82994001315502    2.64548795377256
H           1.24781425063349   -0.79410916523509    2.88028943217704
O           1.72089444672508   -1.57079942207232   -1.58593492052084
H           1.81716596174020   -2.11021494010779   -2.37202237472529
O          -2.09676530327521   -0.60020108729511   -0.93027588408199
H          -3.00370455497511   -0.87284071209488   -1.07283399666797
O           0.21448154380436    0.45942722016801   -2.24666073604739
H           1.25435004256860   -0.73890735521599   -1.87740452015586
H          -0.66984220479776    0.12040011093409   -2.05416916656333
H           0.33016671998323    1.22690513880356   -1.64197358669449
O          -2.14070972186110    1.73564923479699    0.13911597077934
H          -1.47584578374968    2.22300394789800   -0.37890002190825
H          -2.15182714839101    0.31355726052818   -0.49682470480853
H          -1.66284314768807    1.63640627898346    0.98731087156379
N          -0.13227391755837   -1.97700416834181    0.31268274551724
H          -0.34878366476912   -2.95806661177200    0.45465534247851
H          -0.94541852642102   -1.47755171842700   -0.11890252444378
H           0.09428609302322   -1.50901388515648    1.24854915371176
H           0.68669269949110   -1.86139642392855   -0.33882351874233
