    26
        -50.45364622  Gyration_radius:  2.66197898514 Dipole_moment: 7.065
 S          -1.30453793587751    1.47369041077619    1.88427469794898
O          -0.57931337155885    0.57167394182208    2.78153455022823
O          -1.60586579542954    2.75725096476620    2.42151191804854
O          -2.74348287629051    0.74131685146376    1.66905310482228
O          -0.71801310025470    1.44272689600442    0.54906770804273
H          -1.35295374918994    0.25228668780541   -0.30571321034805
H          -3.29307917502731    1.26584513303764    2.24185315329895
O          -1.72872148464803   -0.61328118979196   -0.62294119519054
H          -2.67647028453342   -0.52725945390198   -0.50367723857380
O           1.32591494589029    1.12313319176405   -2.97214635298168
H           2.10049201249765    1.38100775264099   -3.47227908743494
O           2.03461895210218   -1.35585752670930   -0.10540957325671
H           2.79945680289854   -1.90894427352403   -0.26515001623939
O           1.82140182871051    1.48379421383918   -0.37786481845650
H           0.93026431098003    1.63136766532474   -0.01551915674896
H           2.05850817153836    0.58285661250103   -0.11783806291974
H           1.49860011718100    1.39181513614174   -2.03668417743161
O           0.51450131596965   -1.30259040079027   -2.19910201610083
H          -0.37151004612391   -1.12333165715789   -1.85505322563423
H           0.78663399927327   -0.46583647325450   -2.63701050906348
H           1.49183892014989   -1.36275781698689   -0.95544352967122
N          -0.19485227157812   -1.51898985810610    1.38649918067093
H          -0.30615442421573   -0.64696816477713    2.03750118840332
H          -0.36644886749326   -2.37719759121222    1.89848406533292
H          -0.88102596905551   -1.38232168115295    0.60787692787554
H           0.76019798401902   -1.51342937091819    0.96417568523375
