    26
        -50.45364616  Gyration_radius:  2.66200842142 Dipole_moment: 7.066
 S           1.78182185322943    0.47193779170733    2.00659452129184
O           2.22978521186172    1.33134267319851    3.04953779780584
O           1.31979957365650   -0.84955910570844    2.43657745975597
O           3.10106464511624    0.15354670715737    1.10580781656816
O           0.85383779288304    1.04470514156395    1.03779427829675
H           1.22116665285642    0.55259001134585   -0.43659704125907
H           3.79060056729057    0.38209532698513    1.72028253770783
O          -1.99957855723327   -1.37446215739743   -0.31866035144167
H          -2.78433354169069   -1.86696571160117   -0.55948020740828
O           1.48836584712008    0.02845425052265   -1.23966709749185
H           2.43361496960403    0.16907396685657   -1.32051756620629
O          -2.07308525101416    2.28686815730307   -1.52505130740213
H          -2.95189515298711    2.65584846830359   -1.61533030260747
O          -1.10540757855660   -0.05963271151608   -2.36047972070176
H          -0.15754940578501    0.03771511234850   -2.19429422808333
H          -1.70841430290855   -0.87491947567776   -1.14501831696468
H          -1.47837387423769    0.83781993939810   -2.21411213759941
O          -1.84144602421402    1.20805378140926    0.90154815257016
H          -2.00757264035109    0.27758812268272    0.69625296442908
H          -0.88399038376468    1.26973050587339    1.06483337175424
H          -1.98248330011410    2.01655317110570   -0.57857197248671
N           0.54987183407814   -1.97045971304878    0.28817659196521
H           0.99975969210882   -1.36577760464992   -0.43828734940299
H          -0.48392100464897   -1.87997194796377    0.17162870052764
H           0.84579931374185   -2.93748377187301    0.21467415690194
H           0.84256305393017   -1.54469094829075    1.25235924941490
