    26
        -50.46944050  Gyration_radius:  2.47845395579 Dipole_moment: 4.355
 S           1.18708405252925   -1.66535413496606   -0.33909701763399
O           0.39854268770114   -2.63972171080936   -1.05144144301394
O           0.69284865369390   -1.40959036048201    1.01003461877212
O           1.39483024691437   -0.42589931651235   -1.07458828348406
O           2.63381985372945   -2.29822969958708   -0.17361745616411
H           2.44444404712147   -3.22867251872739   -0.11319915137354
H           0.19351863275573    0.35388108066485   -1.74381672377562
O           0.60918768476473    2.58895315609123    1.74297825008276
H           0.54970004339939    2.59502969501214    2.69961076102141
O          -1.87247297139079   -0.77171156963025    1.10964307161068
H          -0.95312449884451   -1.09113004209322    1.23607526016530
O          -0.57001119493616    0.88301870193367   -2.10237546097198
H          -0.22121617374508    1.36518311457168   -2.85368274769679
O          -1.99438956371695   -1.51628084573062   -1.42768038358317
H          -1.19315949809997   -2.07440581118137   -1.37270964620922
H          -2.13779140158954   -1.15902905002513    0.24130144077757
H          -1.72356962513187   -0.73005955890408   -1.91715350523492
O           2.30082797025185    0.66058344328847    1.21274160143710
H           1.32069714364212    1.92436809807119    1.52623844154209
H           1.75615902984999   -0.12775969332421    1.40521272998178
H           2.41641534655825    0.59551901515095    0.25569936133347
N          -1.45784738895557    1.65925889556036    0.34489742913108
H          -0.66740795560825    2.07784078858121    0.90492061792332
H          -1.68278879434027    0.66479582908347    0.74172203265925
H          -2.27812745336231    2.25437998548025    0.37595934793282
H          -1.14616885333014    1.51503252846222   -0.63767314512442
