    26
        -50.45364619  Gyration_radius:  2.6621293244 Dipole_moment: 7.066
 S          -0.44642334601453    2.16910261047832   -1.58741366010278
O          -0.06708544304463    2.93193137163852   -2.72808721355502
O          -1.78847274790947    1.58529970233593   -1.64019378219505
O          -0.52874379586353    3.23386713410692   -0.35741059054466
O           0.51732371049933    1.18573265719845   -1.10578119590960
H           0.56461374837743    1.19505440552268    0.49067733783399
H          -0.59925580408975    4.05116484711946   -0.83945624787849
O           0.34686777630390    1.22362393449028    1.46165360824206
H           0.42376776641640    2.14872317463179    1.70276739472078
O           2.85610552907380   -1.91780658379423    0.15289172528446
H           3.30683954879787   -2.72731218080279   -0.08841451941734
O          -0.98514476479642   -2.22017717100990    0.29913220729505
H          -1.28675010245566   -3.10455190886879    0.50727173941652
O           0.89851274728391   -1.50992565054838    1.92543778739481
H          -0.24687798467209   -2.00668184165020    0.95218408016172
H           1.71037510154209   -1.69964998454688    1.40503258923038
H           0.84587540619461   -0.54463391779514    1.95627807389239
O           0.95387131171283   -1.42662387349345   -1.64896752251634
H           0.86829782721709   -0.45831161111284   -1.60134708054187
H           2.25398075296496   -1.70150713430376   -0.60058289021154
H           0.17974726562319   -1.77595959265054   -1.18613902177553
N          -1.98048486756569    0.26607107833993    0.52491651410960
H          -1.19488831093510    0.66865136626094    1.08753848259087
H          -1.96147458352524    0.79425835935047   -0.43279496657671
H          -1.76408074344826   -0.74307480854069    0.36579809690213
H          -2.87649599769134    0.38273562769414    0.98500905413910
