    26
        -50.45364623  Gyration_radius:  2.66183378397 Dipole_moment: 7.065
 S           2.35058186362082   -0.94494781410094    1.00248514257512
O           3.74791680276828   -0.75278824095067    1.19625280854828
O           1.55065624345885   -1.01627675476989    2.22712239067048
O           2.20032157611533   -2.42865401716042    0.34735613066083
O           1.70039623128960   -0.08523493140438    0.01969579445042
H           0.64989848176103   -0.92630269964991   -0.84055357590511
H           3.04058886400679   -2.80832477094229    0.58206103472641
O          -1.99878875470928    1.10048613935585    0.88533674460134
H          -2.82365897866061    1.52872964786981    1.11462711767792
O          -0.05617231525400   -1.55336972238684   -1.15561470060075
H           0.41913083020544   -2.34040667636347   -1.42848604829030
O          -0.41383617525602    2.48535037397321   -2.34528335564077
H          -0.63486640671085    3.39731545848393   -2.53550375271719
O           0.48292605047749    2.32459002134438    0.15987750828455
H           0.03281857204033    2.48709063030273   -1.46348520645441
H          -0.31790936191215    2.02816191961991    0.61403579888006
H           1.06276931342074    1.54384281713651    0.12205443477631
O          -1.99111650164989    0.45397794544013   -1.62048919672381
H          -1.39115938052811   -0.30257997221749   -1.67717452686924
H          -2.04924780706668    0.88702556450863   -0.09909242969175
H          -1.49512404072954    1.19744641925076   -2.02943885761680
N          -0.83931664303774   -1.26942186250713    1.39718053659406
H           0.15925943978559   -1.14271672000871    1.82539960938647
H          -0.68781485215308   -1.55623199653600    0.40191809276235
H          -1.37051651928980   -1.96025078277055    1.91552403033401
H          -1.32773652187283   -0.34650998551415    1.38419446548544
