    26
        -50.44166774  Gyration_radius:  2.8219081202 Dipole_moment: 5.899
 S           0.11787915703586    2.30169919364392    2.25960781348447
O          -0.68547453730138    1.13854956723156    2.58400760318095
O           0.64166375071458    3.03520892217727    3.36327979953577
O          -0.87123417261643    3.32498808829307    1.49308353798370
O           1.10407515630857    1.95599495579874    1.21530821496058
H           0.02718193860159    1.90011522582859   -0.04625085586088
H          -0.91312287804534    4.01523764757256    2.14538090784701
O          -0.60628412840402    1.67145888313814   -0.76467462893432
H          -1.22438402389589    2.40357079534369   -0.78834344921389
O           0.05486015050649   -2.06561717247531   -2.77696008313524
H           0.56612172478362   -2.69581107859714   -3.28587985764346
O           1.50851072985582   -0.39521046557508    0.44773502617467
H           1.51546394544838    0.55177944821668    0.85370719922339
O           1.30704958607952    0.11294941674028   -1.98340587042965
H           0.62639140854333    0.79859155531168   -1.87770757339836
H           1.55426064177959   -0.21594072137479   -0.61245994665134
H           0.84671081317614   -0.67298594267329   -2.37415696952572
O          -0.99373610312967   -0.59531218327420    0.73057016132200
H           0.51379645278758   -0.66354545556002    0.59668242640436
H          -0.99525329176872   -0.01780272246770    1.54552109996808
H          -1.19606555128013    0.02722368530679    0.01042268240453
N          -0.59015927611214   -3.26578485769221   -0.45052964232182
H          -1.31737079530175   -3.96701365178837   -0.51519680954023
H          -0.21255151375292   -2.52456297823408   -1.93721788431986
H          -0.95837964620814   -2.49186623938678    0.09620346563653
H           0.18005045225706   -3.66591389552570    0.07127361285087
