    26
        -50.44166773  Gyration_radius:  2.82186302282 Dipole_moment: 5.898
 S           1.35522532080461    1.52008300367630   -2.50383188996271
O          -0.08362370612727    1.35045595485609   -2.57083845308051
O           1.89757576026496    2.61110558700214   -3.24273993556659
O           1.99071739186165    0.19109708465739   -3.16946053322830
O           1.80697962131882    1.43086536481576   -1.10003297613136
H           1.63194060761462   -0.21294539735868   -0.95210622089240
H           2.36925605737204    0.57758716577893   -3.95114795614180
O           1.35663061647116   -1.14207302575807   -0.77711280658349
H           1.70170345180515   -1.64318722534179   -1.51761487607077
O           0.22186943939990    1.36991462666334    0.84011719469402
H           0.90962276797749    1.57855401956399    0.10178281219811
O          -0.93107091585006   -1.81430243961511    2.79611058903167
H          -1.08751931256153   -1.79003971890172    3.74080262153956
O           1.25178723620720   -0.62340207815702    1.92389547797240
H           0.49011829611919   -1.13646671552209    2.29658275176914
H           1.49328255903757   -1.06545966246860    1.09273807704010
H           0.69584353285064    0.59324531217929    1.41493330854073
O          -1.16036573664126   -0.05239257815434   -0.72454273652305
H          -0.49755250477033    0.85129608165404    0.29516794037664
H          -0.90500103201252    0.49289132863540   -1.52147398943208
H          -0.52096267235289   -0.78592518801909   -0.73644159388476
N          -2.89951719790352   -0.38674740702651    1.63178171022516
H          -3.03801860656044    0.55122035839759    1.98756971477373
H          -1.67898211320288   -1.31908290615613    2.36858736318285
H          -3.80267938388161   -0.84300437949782    1.60261001005596
H          -2.56725947721513   -0.30328715588480    0.67466440607994
