    26
        -50.45406837  Gyration_radius:  2.52439766772 Dipole_moment: 5.871
 S           1.22157338218028    1.84726713208050    0.57607092182968
O           1.06884587100577    2.77636387400349   -0.51122324394415
O           2.40645089273065    0.98831784353510    0.44514157115398
O           0.05064354681825    1.05107954571987    0.87893558552417
O           1.48893927915952    2.73758634844459    1.87647879583243
H           1.86510981634759    3.52638579739825    1.49916301519909
H          -0.27905545676212   -0.24803289859106    1.70405482965382
O          -0.35131152072101   -1.14118599050635    2.14126993393357
H          -0.57245448583537   -0.96925369877726    3.05716629192846
O           0.14661430838972   -1.53418746083605   -1.68752697861376
H           0.01456716946451   -2.09322394392285   -2.45382706849965
O          -2.88525070729376    0.69100592296715   -0.77941578512700
H          -3.51633534109454    0.79571500052890   -1.49296106121011
O          -0.57540408708383    1.24926917849340   -2.00305281429793
H          -0.01238998615763    1.87250371419836   -1.51027078143474
H          -0.14471331505744    0.38614015736645   -1.94605708457628
H          -2.02454228518133    1.01878716873436   -1.13464065219814
O          -1.91373642283352   -1.70591505988485   -0.15131721539978
H          -1.53725992285334   -1.60659827073916    0.73483011832649
H          -2.37299921623460   -0.85090962764317   -0.33000122014121
H          -0.69588339858118   -1.60994288960310   -1.13153879549317
N           1.73999173581978   -1.46970429131136    0.45036534748907
H           1.23049392567150   -1.59689642532028   -0.45618442850720
H           2.07815673005822   -0.42951737421150    0.46272296136785
H           1.05215107350347   -1.57198330437014    1.21937852214629
H           2.51779844451714   -2.11307043774527    0.54243924507229
