    26
        -50.44166770  Gyration_radius:  2.82204444521 Dipole_moment: 5.902
 S           0.21214602740201    2.77544844636798    1.63405667725328
O          -0.25127570947098    1.62926754706600    2.39240375383138
O           0.83308098766933    3.81784504544865    2.38125247635006
O          -1.10924401806312    3.44095899363690    0.98281751796506
O           0.96787948916378    2.32156088582778    0.44856091707626
H          -0.34750003765954    1.81938784842729   -0.43045106018167
H          -1.12639427190331    4.25641075702193    1.47113111772737
O           1.62040970724287   -0.07033802084826    0.08254255797359
H           1.54229761115667    0.93905908828515    0.27396450596606
O          -0.21360736001357   -2.65117301827571   -2.21384304217996
H           0.27301221926690   -3.31284066450432   -2.70668459980983
O          -1.07812814959630    1.34136690925030   -0.88585402145440
H          -1.81261688363053    1.95708607043190   -0.88310432403167
O           0.75082337484026   -0.19910079318037   -2.24897130671046
H           0.36986890275361   -1.11028861892411   -2.33196472348850
H          -0.00326711703262    0.39534932246040   -2.09887209096703
H           1.37654418171682   -0.14922446366696   -0.96270313070837
O          -0.65597862211648   -0.52595616891340    1.07833260944292
H          -0.57321491060353    0.22599594473224    1.73052580427018
H          -1.13932300316645   -0.12856417450193    0.33294998320077
H           0.76052520130440   -0.42433757124352    0.55046529289211
N          -0.05059563234332   -3.32729468792009    0.39090179703492
H          -0.63005631993521   -4.10946852606825    0.66855846619413
H          -0.18251390017780   -2.92416323402339   -1.25892679585811
H          -0.41463441426791   -2.49739322319872    0.85153167124424
H           0.88176265733459   -3.48959368368534    0.75137997686460
