    26
        -50.44166766  Gyration_radius:  2.82199224865 Dipole_moment: 5.899
 S          -0.63755481029105    3.15913035209283   -0.17500147444284
O          -0.50079293512218    4.54678212560254    0.11851140127759
O           0.23341048965349    2.63186059969575   -1.20799571040582
O          -2.14466179770175    2.98347128173061   -0.73248509784923
O          -0.61826276055086    2.26708028280795    1.00242052784213
H          -1.54277064766018    1.05963697476318    0.33758849491513
H          -2.37118953910222    3.89885104571348   -0.85266487024830
O           0.23180360518826   -3.41347789706384    0.52459292073714
H           0.62313471936899   -4.10790932619082    1.05578167021300
O           0.98741329420436    0.35701718090760    1.23726500813362
H           0.44035946528602    1.22923609175317    1.27559537240570
O          -1.91700596093375    0.25603593435780   -0.09117461573034
H          -2.69687969410772    0.56614307029515   -0.55401926138119
O           0.56877247790711    0.09787364080895   -1.24036690887370
H          -0.36472592008272   -0.15315171068226   -1.12810493329280
H           0.52949366345309    1.08549006575364   -1.38459459367949
H           0.99171313438595    0.17475802713656    0.21233029621647
O          -0.74352439778652   -1.33732343807962    1.82167331916919
H          -1.43699601604342   -0.95936614835678    1.25527757636776
H          -0.44862917360956   -2.17163882190018    1.37531875070623
H           0.30511958024845   -0.38623660950865    1.61188639683670
N           2.21601566964148   -2.32833650378698   -0.94299615037890
H           2.53035913651150   -2.89132738374011   -1.72332143655359
H           3.03492368867097   -2.02602024648295   -0.42969099957738
H           1.77187215046895   -1.49712339309119   -1.32410069962360
H           0.95860258794544   -3.04145518449340   -0.04172500274991
