    26
        -50.44166773  Gyration_radius:  2.82163979421 Dipole_moment: 5.895
 S          -2.19170212832648    1.60644138157090   -1.74084010876871
O          -0.83425184001815    2.11227957869827   -1.81112516102565
O          -3.03136941017517    1.89396462463503   -2.85563173438925
O          -2.87860362575693    2.35094903926358   -0.48114181877575
O          -2.17929635501492    0.19105280352085   -1.31726448548561
H          -1.81899850728225    0.47807181424507    0.27739765215506
H          -3.51298020612991    2.88506350325677   -0.94594037933763
O          -1.42015320804857    0.60383952805653    1.16890397071706
H          -1.93054431301428    1.31024166619795    1.56783617999169
O          -0.07490797644809   -1.15690987604840   -1.13353172898632
H          -0.97267730675568   -0.70937589511640   -1.36995894673593
O           1.90620222846087   -1.92978218165082    2.14857784667951
H           2.34312478770439   -2.77161041823824    2.28256763302084
O          -0.53720721650548   -2.00291041044558    1.16428829368995
H          -0.98171621594663   -1.19504906610176    1.47149381628274
H          -0.27685783719709   -1.64922000396948   -0.19814940130505
H           0.34513443891543   -2.01908385719635    1.61533472781628
O           0.88178582825507    1.01447714314272   -0.26608757498550
H           0.33899207642569    1.01312325007502    0.54157594762330
H           0.48573806274820   -0.32864129521364   -0.84556296677896
H           0.34514779186593    1.56114344277150   -0.90693438504578
N           3.28264978782876   -0.62007752222312    0.23565396032037
H           3.43529946190769   -1.12706814076800   -0.62760921086660
H           4.17186979356116   -0.23698324760055    0.53093085665026
H           2.66735885718865    0.16119604334682    0.02469397030187
H           2.43796301171438   -1.43513191416080    1.47052306721961
