    26
        -50.44166772  Gyration_radius:  2.82192133954 Dipole_moment: 5.898
 S           0.80897485409775    2.67906945761092   -1.60766899869153
O           0.69011752480537    2.81677320631008   -0.16872930270919
O           1.66398745893392    3.61192586061532   -2.26284095793595
O          -0.66770555195096    2.95619961558644   -2.20395782843378
O           1.04330025772412    1.26343581427840   -1.95940173612366
H          -0.50680645113102    0.74181987393359   -1.67610050881421
H          -0.49913233309366    3.77524054472134   -2.65612353644862
O           1.52226341475022   -0.50373618730820   -0.24824491312040
H           1.51597812722748    0.20649187818953   -0.99480736720655
O          -1.03953685325497   -3.06620198052782    1.22255383019241
H          -0.77993230913291   -3.96214194672960    1.44025469502183
O          -1.35304470897670    0.37202533272563   -1.33434732214084
H          -2.03344420679995    0.94065393849347   -1.69814908316605
O          -0.17716402829735    0.78014718608527    1.11033955289336
H          -0.91809319848451    0.56647539639259    0.51673022403529
H           0.91798451710453   -0.04345754364214    0.46336678088683
H           0.14757902699431    1.66140967104436    0.77045066153816
O          -0.19068919602045   -2.11003839965768   -1.08165510074068
H          -0.56478591349661   -2.53318554116862   -0.26724380916689
H          -0.83105708758416   -1.43014496458454   -1.35041119095905
H           0.88879495123271   -1.28303223713770   -0.63537001742448
N           0.14277670546073   -1.44178666238815    3.02037546528392
H          -0.02195577889515   -0.52202128676865    2.61994882777166
H          -0.27002646864924   -1.45061157279844    3.94460066863490
H          -0.63231752762034   -2.47461348918001    1.90918962450378
H           1.14393477508649   -1.55069596408062    3.12724136230029
