    26
        -50.44166772  Gyration_radius:  2.8218275913 Dipole_moment: 5.897
 S          -2.14873468327034    1.55343913225511   -1.84013342045417
O          -1.72114327442999    0.25546889832937   -2.32584019767885
O          -3.43133208779934    1.99860212903826   -2.27288738523253
O          -1.09628245813925    2.62223129076602   -2.44265068929636
O          -1.91350952962120    1.64773144281714   -0.38469586074909
H          -0.26502902651951    1.82245377621268   -0.47398666090132
H          -1.67329954392805    3.08582333103585   -3.03913908302171
O           0.71545207216890    1.73216649634767   -0.48596648380229
H           1.01067765699707    2.35781607726462   -1.14930624287519
O          -1.22636384689353   -0.31493032946993    1.01364097450385
H          -1.68301026822471    0.46922361110352    0.52517519983844
O           2.40117877764219   -1.16054427132008    2.20539509077989
H           2.56654405374311   -1.54977801106022    3.06483593949010
O           0.68685309739258    0.83878849283551    2.11693185664485
H          -0.46931878884659    0.16484401858564    1.60938358727939
H           1.39077933489269    0.14635396912491    2.20230267359829
H           0.92906283031707    1.37491863333447    1.34330579472331
O           0.15123692396496   -0.89848517035706   -1.02221043685528
H           0.73663413476991   -0.12599836266192   -0.93494852304914
H          -0.67880185570265   -0.73675034996525    0.23557043265493
H          -0.55850684490338   -0.58383939679377   -1.65049271362902
N           1.20025397000694   -3.04758249624819    0.70036755994746
H           0.89596521084041   -2.51448314351190   -0.10999171352865
H           0.37886466624072   -3.48153667927606    1.10356180720686
H           1.80890623478546   -3.78549884843821    0.36915060303415
H           1.99292323451054   -1.87043424994993    1.64262789135508
