    26
        -50.46147060  Gyration_radius:  2.59147466603 Dipole_moment: 4.224
 S           0.71153809361178    0.00084610738628    0.22570503449473
O           1.04363915038226    0.48001028998449    1.57859485919465
O          -0.31754043367003    0.84707260597086   -0.36215725013136
O           1.86711910916129   -0.18627369662477   -0.61800365743301
O           0.03794897943453   -1.39721417274367    0.48227713603084
O          -0.03032732235910   -1.92602251634731   -3.49163279453077
H           0.30447529085452   -2.12492345809027   -4.36728082257130
O           0.05655681020871    2.93695056461317    2.10790075671892
H           0.45052532189025    3.58704762476380    1.52431301720858
H           0.53750548320766    2.10132385626644    1.94306480258122
O          -2.16797308017017    1.65554793238155    1.31273450115766
H          -1.65117782746888    1.38058680145215    0.51878575806164
H          -1.75886369975002    0.51050262338108    2.17770539719089
H          -1.61505499833210    2.37069026194113    1.68898947810496
O           0.62912408601845    0.58000933695840   -2.86941233148711
H           0.13195489843770   -0.96256602439989   -3.34720965482185
H          -0.04154321396944    0.89356037681868   -2.24521537387888
H           1.37245973141022    0.37304628135192   -2.27898379445757
O           1.27377440557546   -2.71996764465292   -1.29619600605685
H           0.44706706549266   -2.03570698766537   -0.18918548265059
H           0.75235477651100   -2.58173962831268   -2.12132218151366
H           1.90900745761625   -1.98840145965314   -1.26252311218481
N          -1.15971410248384   -0.28187899339702    2.65410687792513
H          -1.34525913318851   -1.17867364778316    2.20762535148811
H          -1.27941117115512   -0.32440550785813    3.66101237542048
H          -0.15818566725552   -0.00942091574228    2.36630713614074
