    26
        -50.44137260  Gyration_radius:  2.50171821663 Dipole_moment: 4.969
 S           1.15684003525636    1.86010891296506    1.04351952840666
O           1.40072730651661    1.75298902897145   -0.41159908528478
O           1.28954789854541    3.17904835725061    1.57087708705340
O           2.37340794343152    1.02109352187994    1.69226744754920
O          -0.05053262872393    1.13859489383090    1.38083297601240
H          -0.20731201693146   -0.40274067118165    1.77116374967127
H           2.84625496302893    1.71670191453642    2.13723805339338
O          -0.30755768038597   -1.37211282581495    1.95314403887802
H          -0.67867541741595   -1.43257151589673    2.83451466312128
O          -0.08379358926132   -1.27348638338675   -2.09752745766995
H           0.32999120222373   -1.49758453756794   -2.93168242591900
O          -2.71858330769989    0.87692852137326   -0.35289446511985
H          -3.53358115722090    0.91429892115717   -0.85657579301249
O          -0.61588990258620    1.20685679202635   -1.71612353620307
H           0.23581406141270    1.51138684701833   -1.14116713430023
H          -0.43447531949728    0.22560198931759   -1.94284142791102
H          -1.44939843419769    1.19392812350465   -1.09817701231111
O          -2.06121897920258   -1.63817507978193   -0.08549778752055
H          -1.46320137783251   -1.64982206887997    0.69146331707661
H          -2.55486888016673   -0.08394521818180   -0.13566308809922
H          -1.48565311889542   -1.75402320112148   -0.85242149045767
N           1.68733164140333   -1.11906520378374   -0.24163325620125
H           0.65776485665496   -1.29680650511767   -1.37570193019434
H           1.79115494765559   -0.10982220633724   -0.15545052949826
H           1.26246385592417   -1.44511615514654    0.62109221208347
H           2.61344310796574   -1.52226624163730   -0.30115666354351
