    26
        -50.45568706  Gyration_radius:  2.56694848444 Dipole_moment: 1.982
 S           0.35722221723640    0.19584988595433    0.92010710340082
O           0.98173691004862    0.12215110845045   -0.42502929920080
O           1.51130275510392    0.15752940110039    1.94159560439727
O          -0.33413073062543    1.46016529373144    1.09133572629139
O          -0.51327975237844   -0.94666540639176    1.12681920054147
O          -2.22894608411026    0.69087011463003   -2.27986936871065
H          -2.29027087946827   -0.16541818879906   -2.70673364813968
O          -0.07708665989888    3.53110169346055   -0.43542835599471
H           0.71731137367309    4.00149064502672   -0.17614894477740
H          -0.22596466026380    2.83269665975297    0.25387864144548
O          -2.68776522745151    0.25695032559719    0.25068363213099
H          -1.97268985714019   -0.32461118720026    0.58695596140354
H          -2.54969028820812    1.08455193449933    0.72171434898232
H          -2.48385801993249    0.54628594716881   -1.32408549976443
O           0.10710469343666    1.65694301317462   -2.13734272308661
H           0.02382227648495    2.52211559476859   -1.59314104014250
H           0.53639517591582    0.96899917733650   -1.43227563301370
H          -0.85574761617249    1.30579941566341   -2.27978936409632
O           2.78174854903431   -1.63457266620921    0.65062505734605
H           2.12575578324834   -0.55410506400406    1.57792731462757
H           2.21795094458629   -2.43116955880814    0.83165940866549
H           2.40173982795246   -1.21643779973048   -0.13339600686367
N           0.86882299289783   -3.43534419643794    1.17190946468507
H           0.21883009485235   -2.64754058517152    1.19595846862243
H           0.86141720380317   -3.86365142636190    2.08898237807768
H           0.50826897738162   -4.11398414121703    0.51308758317950
