    26
        -50.45981105  Gyration_radius:  2.52922813923 Dipole_moment: 7.031
 S           0.82011611810999    1.32764089357518    1.55260531530579
O           0.58387971304034    1.55794353323659    0.14486119496891
O           2.06937411376559    0.60466739745511    1.79143113367586
O          -0.29270334133362    0.67600550636243    2.22293992441137
O           0.98048576901239    2.74697948532595    2.22330402560913
H           0.98787341931767    2.53624400174972    3.15116806587871
H          -0.61128362568309   -0.82610075170134    1.84483403538329
O          -0.71358014621436   -1.78562891087673    1.59084542810831
H          -1.21150670876120   -2.19214032794784    2.30152896791431
O           0.80133951905297   -0.40964246856984   -1.63254689916562
H           0.80302011650727    0.43406301405501   -1.13337979070166
O          -1.95958814161235    1.48713478530731   -0.81487604825940
H          -1.12583028790373    1.66349950849172   -0.34621191341289
O          -1.02239514560044    1.00234807060681   -3.40215170991869
H          -1.76468619923624    1.65508028515825   -1.75229088226261
H          -0.17388590353210    0.64731070584764   -3.10575914513633
H          -1.59513098073955    0.24423976655709   -3.54051428259604
O          -1.62446795165262   -1.14044025875244   -0.99291312944160
H          -1.50040455506205   -1.47842778286774   -0.09504341249506
H          -1.94240301864449   -0.21001673649429   -0.88190769922601
H          -0.12736026454308   -0.76148207555833   -1.51085729588168
N           1.74628818315983   -1.59107953541959    0.47690527404743
H           1.48069680343767   -1.22324632086692   -0.50233155567800
H           2.01115513970522   -0.72145523408727    1.04654461186229
H           0.88553260487707   -1.96982945110947    0.91306947386367
H           2.49546478056840   -2.27366710942588    0.45074630312931
