    26
        -50.45981078  Gyration_radius:  2.53072626538 Dipole_moment: 7.009
 S           0.77401957648733   -0.46680182829994    2.01000139614846
O           1.30149476405708    0.86001695047674    2.32878373867490
O           1.19354993055279   -0.92013873365388    0.70264419390755
O          -0.66636178075330   -0.51205753074813    2.19907873461002
O           1.39648819080953   -1.46832345957883    3.05860441215373
H           0.96331468923459   -1.21385466320533    3.86668371639269
H          -1.54930743656650    0.49292539721615    1.35560196847139
O          -2.03003175423013    1.19153620560519    0.82977183726644
H          -2.87696283992179    1.30770240647218    1.26278562137821
O          -0.49133751856250   -2.40788227414821   -0.82937013223823
H           0.08486353545342   -2.03219649009594   -0.14187836566028
O           0.98907528002904    0.63839811122909   -1.44350315980581
H           1.24430634010541   -0.00064619731949   -0.74524211798983
O          -1.51341873672166   -0.08980085609165   -1.62315037280548
H           0.03703870798823    0.40716707057302   -1.64722590536388
H          -1.32522886144703   -1.02098384413657   -1.34667663924570
H          -1.90162724037278    0.33578224869681   -0.84602085115640
O           0.92089808182322   -1.71644650520075   -3.13901247365261
H           0.07992630131476   -2.51622330090016   -1.60843148713785
H           0.14165532370082   -1.44726583256621   -3.63103911130902
H           1.28748567272183   -0.90942009882510   -2.75344659466877
N           0.38778477742201    2.33927842683842    0.42366641462902
H           0.71083710483165    1.79671257892153   -0.45127692746493
H           0.63436057531916    3.32210598651045    0.39027853660988
H          -0.63394230007443    2.19404290943307    0.52253780791891
H           0.84111960678180    1.83637331278701    1.25583578032745
