    26
        -50.45640445  Gyration_radius:  2.43302780467 Dipole_moment: 7.920
 S           1.11031863309401    1.68613068220336    1.26638337446599
O           1.40584626531494    3.06548442784181    1.45063336138007
O           1.30448494752007    1.24224119100943   -0.14626367354359
O          -0.43232196289261    1.43416148767693    1.54310596821412
O           1.76367953196999    0.74059070332742    2.15612609839691
H           0.77521782488324   -0.46075253356853    2.19198352675435
H          -0.96298104207456    1.70359812635802    0.77276266930953
O           0.26365642102023   -1.31630166610734    2.07241157521114
H           0.06667992535829   -1.63018786679787    2.95568618113941
O          -0.22428863495891   -1.55882385449061   -2.08090568021753
H          -0.39298995475126   -1.96738576358036   -2.93011381809012
O          -2.23280632199234    1.44820785410456   -0.44114389984458
H          -3.07300064125843    1.77229282959390   -0.11449826059976
O          -0.24607003448068    1.02228400392277   -2.30195801516637
H           0.42464875855820    1.25434829597432   -1.62807138395598
H          -0.25305479514394   -0.56289171377851   -2.23639612000697
H          -1.07983391834374    1.33058890578243   -1.91802391353623
O          -1.81526227831570   -1.08028493695399    0.19859546882313
H          -1.17845844837624   -1.07835717198777    0.93405184227665
H          -2.18948881519120    0.48439861414505   -0.20199015169735
H          -1.33965894678561   -1.41985683640423   -0.57421291922798
N           1.68392191932680   -1.25810991896962   -0.20095077630005
H           1.09784286415137   -1.57576051038051   -0.99727166733925
H           1.59762003376659   -0.14988737779100   -0.16928177578251
H           1.27378832794721   -1.58499465979435    0.69139432673267
H           2.65251033165274   -1.54073232133662   -0.29205236739600
