    26
        -50.45490190  Gyration_radius:  2.54676093452 Dipole_moment: 5.618
 S          -1.40686909965701    1.05161222691647   -1.57727052047056
O          -0.14522382957988    1.47378702516679   -2.20162884992886
O          -2.00808325330267    2.08071639260364   -0.76904211999562
O          -1.24619966139019   -0.22991876994652   -0.92354222136110
O          -2.41732595272592    0.80627600523229   -2.78830153477433
H          -2.87137108251997    1.64166612921528   -2.83837322877476
H          -0.29694838110481   -1.49468086832317   -0.91447496590142
O           1.73057948376222    0.83207104281764    1.22644675311806
H           2.21392528183961    1.54338314443937    1.64810163074095
O          -1.47829806124907   -0.91687263191647    2.58071610997978
H          -1.46545424098577   -0.89186711741317    3.53862019255178
O           0.42065585055689   -2.18313597457464   -0.96389494927063
H           0.01976430686943   -2.95159443009381   -1.37161709310280
O          -0.72707646958635    1.45995317208047    1.49432659254952
H           0.74700442155718    1.08896633104077    1.30957303253317
H          -1.22609588298406    1.72748419524774    0.69964680460133
H          -1.15803350476135    0.64099353944392    1.82009897183279
O           0.93711244042582   -1.82993000148302    1.76575832657021
H           1.34380765370459   -0.95376807758711    1.70628154628491
H          -0.65196615322714   -1.37009472017539    2.30557192793886
H           0.76731234717370   -2.10211179789599    0.85065808038730
N           1.81818753922766    0.10574571435242   -1.33070641239937
H           2.67986273884598    0.23244603818579   -1.84923798799285
H           1.50752409813263   -0.88182461543428   -1.32960090863460
H           1.90883462185811    0.42256221903798   -0.33119475424864
H           1.00437480911952    0.69813582907214   -1.75691442222320
