    26
        -50.46731851  Gyration_radius:  2.49183729841 Dipole_moment: 3.588
 S          -1.92663687828494    0.08146801096381    0.59455412095484
O          -0.97985875244903    0.98596596826891   -0.03888710612711
O          -2.52668456978834    0.57394256232113    1.79948734488657
O          -1.37325770545225   -1.26541489200388    0.70329093546254
O          -3.12007559985728   -0.04006771543394   -0.48114851842299
H          -3.87478848289785   -0.21997443999899    0.07023387650712
H          -0.27994192456791   -1.72391061299748   -0.45982393855711
O           2.33606204261028    0.10526987154001    2.12743970632241
H           2.78903700794186   -0.54127366323014    2.67141385279090
O           0.99516234356927    2.04873657895730   -1.50493017171529
H           0.29832779477719    1.96456702378742   -0.83046002003718
O           0.35058980680669   -1.77416224238795   -1.21515436739126
H          -0.08793073743945   -1.25802019993631   -1.91830918243294
O          -1.05266977833034    0.14807742017750   -2.52909249001151
H           0.57119536526613    1.76478074092807   -2.32238020136530
H          -1.95630017018982   -0.06766243819658   -2.76568534453615
H          -1.10824129506471    0.48974590558548   -1.60824827149543
O          -0.16642201359681   -0.30492276350069    2.85703766027387
H           1.39210848838664    0.07497199578248    2.41920840538339
H          -0.86892027373800    0.34597147708489    2.97148227340223
H          -0.51960199821123   -0.88371179650177    2.15813582799339
N           2.24633317103462   -0.10467400977884   -0.54174406909290
H           2.31319561283657   -0.02166576913659    0.50412618156243
H           1.87641397291854    0.80591085172560   -0.92755587356230
H           3.15265515341826   -0.32411731843480   -0.94015372591122
H           1.52024942029230   -0.85983055559109   -0.79283688488029
