    26
        -50.46731851  Gyration_radius:  2.49190669553 Dipole_moment: 3.589
 S          -0.67257268928733    1.66809885526216   -0.91520599496794
O          -1.21251334819091    0.68295556931079    0.00866091815174
O          -1.42561475769086    1.84907883496774   -2.12125323191125
O           0.75828182112404    1.46386769924239   -1.12295869877572
O          -0.78559438386877    3.05651825455497   -0.10547532920889
H          -0.87681610096542    3.69467129672156   -0.80580433154975
H           1.61348454723757    0.79969200229720    0.13672255374698
O          -1.53623750872280   -1.13351559324304    1.95123013211544
H          -1.71451014658505   -0.59993769318346    1.15680160539763
O           1.90980922688223    0.38068421781453    0.97765722696584
H           1.36173060166174    0.81524035545527    1.65880809286667
O           0.34723668254417   -2.68817754673273   -1.62724705508997
H           1.03976798433967   -3.06805841212144   -2.17056807977965
O          -0.19173002662451    1.50095920963932    2.28844488581652
H          -0.21445427718671    2.45880534948476    2.32111945501855
H          -0.62260180044329    1.26800291852215    1.43532551730128
H          -1.30496190939535   -0.48609875235029    2.62645951739294
O          -0.02900863333234   -0.38166574687187   -2.85246433315012
H           0.08470120086943   -1.85332095990187   -2.08679531583678
H          -0.85780069659767    0.09115064288424   -2.99325899293886
H           0.49263246801665    0.24870645797735   -2.32451165604163
N           0.77801285116122   -1.97526035913195    0.91881351819396
H           0.61726679419182   -2.28478027911310   -0.07296018482382
H           1.27842779516539   -2.68845402710600    1.43771416100746
H           1.32141831666430   -1.04515391937087    0.91741859442600
H          -0.15835399095897   -1.77400834500455    1.36332700565808
