    26
        -50.46731853  Gyration_radius:  2.49188702119 Dipole_moment: 3.589
 S          -1.49643487127601   -0.44857568049179    1.27753132879388
O          -2.49297497538159   -1.47824628968378    1.24570725393350
O          -1.35480001497290    0.31278284671957    0.04633045818960
O          -0.19559274329433   -0.88381406510951    1.77803603517288
O          -2.01427390879117    0.64127313719159    2.34540212490974
H          -2.51531500947749    0.10874555158946    2.95482869520162
H           1.10749577976532    0.08349127651627    1.42416172095075
O          -0.45211426776901    1.85950207432053   -1.94666566943909
H          -1.00563065596996    1.22496705360569   -1.45825160030689
O           1.10219721472847   -2.18416256248798   -2.00271499167257
H           1.75688119894657   -2.88268539023145   -1.95247181342134
O           1.72566840784874    0.77101929971893    1.08398749195537
H           1.20408200163646    1.59502134771233    1.12974339494335
O          -0.31986083879916    2.55609457912314    0.94353666051645
H          -0.74076309071453    2.79138987469503    1.77210138205616
H          -0.38014551887026    2.61735044025238   -1.35582203152904
H          -0.78134151812278    1.73836932734186    0.65009720649456
O          -0.47096530532570   -2.83901859456577    0.01214907562053
H           0.41826028579364   -2.41989410143935   -1.32912133956229
H          -0.16813819739237   -2.26573115350988    0.73868085265208
H          -1.43109783383028   -2.76599157851868    0.06752199974178
N           1.72087053798275    0.37340640069354   -1.49995039410074
H           0.90668162233825    0.97157777206386   -1.80687531199307
H           2.57524294072493    0.66009815412321   -1.96490326507299
H           1.80244998348421    0.49343487747952   -0.43255770186635
H           1.49961879672973   -0.63040456711804   -1.72048155218544
