    26
        -50.45059453  Gyration_radius:  2.46317331246 Dipole_moment: 4.138
 S          -0.17444015867426    0.53266985062165    1.92081084655073
O           0.43697296825671    1.25086261841832    0.81891061672466
O           0.05333515533874    1.06902364106215    3.20984438870369
O          -1.67654085925825    0.38852778714071    1.62445798175407
O           0.33687255757228   -0.93380802085249    1.87401739679304
O          -0.61940091414731   -0.56071962611012   -2.09540013060656
H          -0.60919160132070   -0.76459269572350   -3.03095765976208
O          -0.75338246096708    3.33972550563818   -0.35851114574204
H          -0.14147337189221    2.70302749574826    0.05763496010858
H          -0.94555687359859    4.00581553350374    0.30322714365264
O          -2.21484859291611    1.13420535300074   -0.70409286032984
H          -1.67508585968257    0.58757785547620   -1.31043544192474
H          -1.91818837903389    0.70940577149865    0.65870118998915
H          -1.81998995427972    2.03362846704028   -0.73039293949055
O           1.71268914373370    0.13086125487537   -1.29271234101489
H           2.12607534146980   -0.65710852768762   -0.86893527975625
H           0.32064118264377   -0.26989143999631   -1.85256961458716
H           1.41504023774716    0.68535127856586   -0.55149403549188
O          -1.16464861047818   -2.00081672851381    0.08561725829322
H          -2.04522768506154   -1.71440689229879    0.34384171626036
H          -0.97352357025739   -1.57320540461608   -0.77883440811242
H          -0.21115533656760   -1.40696646108906    1.17501239190322
N           2.59385478672186   -1.99012504859533    0.17637866651787
H           3.57751090695878   -2.05076722817484    0.40677655759740
H           2.28074077236606   -2.91203000011414   -0.10058213529442
H           2.08892116531672   -1.73624433882182    1.01968684726097
