    26
        -50.46147043  Gyration_radius:  2.59108235984 Dipole_moment: 4.221
 S           0.74066370867703   -0.07749515385170    0.07623837657520
O           0.39854375428592    1.23113031056980   -0.72656985015240
O           1.51176370482667    0.27913524649672    1.24250978944211
O          -0.53380778691779   -0.71209836509342    0.38277933836675
O           1.48805847044628   -0.89543284644828   -0.89475373829212
O          -1.08889872083331    2.73982746054067    2.68113315385776
H          -1.08514371815865    3.14254969655485    3.55072316345757
O           0.46289326368566   -3.37362219276014   -1.21008815968757
H           0.95070473757161   -2.53933257926192   -1.05945259055955
H           0.52493091012969   -3.86659305958869   -0.39064453676597
O          -0.56375110306965    0.13972954817288    2.93571129086505
H           0.36754701532883    0.16961462149993    2.66096330928152
H          -1.00630388423409    1.76658364700273    2.82784995281916
H          -0.98201266962791   -0.29631332868744    2.17867542073074
O          -1.71484722241462   -1.86352453035722   -1.65826474404060
H          -0.86967377658995   -0.98764729456758   -2.52294175795744
H          -1.15734154560856   -2.66742776071628   -1.61828161563038
H          -1.50129712759123   -1.41203714867666   -0.80786289450262
O           1.03052573866900    2.91867681550602    1.06041143242749
H           0.22504506302002    3.00723187545118    1.62180713433130
H           1.53459115219584    2.18290052434774    1.44036910713000
H           0.60156592574495    2.00468177837619   -0.10519908006309
N          -0.04036677226770   -0.36112164970650   -2.88712323063112
H           0.23032062479259   -0.57024390116741   -3.84262840811003
H           0.73832028165442   -0.58413967880996   -2.17691468788552
H          -0.26203001371259    0.62496797517225   -2.75844616500219
