    26
        -50.45490159  Gyration_radius:  2.5474721833 Dipole_moment: 5.609
 S           1.30810999511703    1.75111199629869    0.89912787135236
O           1.10509935341399    2.78097948540685   -0.08666603384815
O           2.43941612292537    0.86772699114341    0.58378613654062
O           0.13249708074046    0.97344740232663    1.22855020647536
O           1.72546203355841    2.51077524946111    2.23972212158831
H           2.09541524250326    3.31985085291293    1.90063157618379
H          -0.29756653221755   -0.47931367224412    1.68387427065641
O          -0.42241099249542   -1.44407436541476    1.89559451472673
H          -0.70812069831439   -1.47765958595997    2.80923226578211
O           0.16192823432202   -1.09295484838899   -1.99411150571771
H           0.42934079325040   -1.15810691994770   -2.91152019080001
O          -2.94097755060412    0.81358791279132   -0.60113331833682
H          -3.63094774883980    0.81573890554923   -1.26618438795133
O          -0.50066093442890    1.34964126502419   -1.67454470947513
H           0.07517927304068    1.91960849141608   -1.13080857067881
H          -0.08230165528362   -0.11285484482234   -1.85399419549427
H          -1.36310513940825    1.31437631399529   -1.20820257165197
O          -2.05658445222057   -1.73396733978817   -0.35860566708307
H          -1.59560996128872   -1.71691269198874    0.49444426924593
H          -2.72401076712756   -0.12888854176959   -0.43187432234755
H          -1.36518128810256   -1.65022587418048   -1.03056140332347
N           1.65717291780900   -1.51900954066868    0.16395303309878
H           1.13410246724970   -1.44487753033717   -0.74629680733127
H           2.04410227859229   -0.51679795652718    0.36605852012953
H           0.97524595917232   -1.73884244765178    0.91114934709568
H           2.40440595863908   -2.20235871662599    0.11837955116748
