    26
        -50.44493624  Gyration_radius:  2.70484942007 Dipole_moment: 6.288
 S          -0.12812130765696   -1.92193677178121   -2.25404461571905
O          -0.99870766822547   -2.16557740866225   -3.35770460606481
O           0.71391120324815   -0.72913325083389   -2.38140460144672
O           0.91062739104697   -3.14948237044616   -2.23772398948832
O          -0.76703297830431   -1.93944275388801   -0.93776210404138
H           0.66388187397029   -2.06565252352982   -0.10182312201673
H           0.65744727247184   -3.60680294190652   -3.03266462286097
O           1.57829994583908   -2.02747416556987    0.24851334789441
H           2.11925383711051   -2.39209029369429   -0.45488874810034
O           0.34712664255249    1.18719972581539   -0.85721610549204
H           0.53091983805015    0.43566856088459   -1.57283710196024
O          -0.43043509643531    0.79914344265285    2.59727995318626
H          -0.54182640192471    0.85504377383179    3.54638994416658
O           1.78462587027222    0.46774168664017    1.05135899442895
H           1.12550959685579    0.50358626885285    1.77060279064144
H           1.85835830833116   -0.49009385909303    0.81079654035265
H           1.04262433100178    0.96765905485188   -0.07353692475659
O          -1.74145754878700    0.20388394104996    0.18832268299666
H          -1.48031122212092    0.11061572317718    1.11777570318439
H          -0.56849175069314    0.90990834352088   -0.45816311022641
H          -1.57065398058872   -0.67286589353095   -0.22948479169922
N          -1.04078402044755    3.06754523459223    1.28262140740768
H          -0.63755576659772    1.69438989466493    2.21805000872508
H          -0.28409763088579    3.29270679733211    0.64751031249615
H          -1.82109393611781    2.74435718865020    0.72166818560878
H          -1.32201679193612    3.92110261642682    1.74836457277562
