    26
        -50.44493619  Gyration_radius:  2.7047202747 Dipole_moment: 6.284
 S          -0.28973070571726    1.52394387042391    2.52632408183980
O           0.85816342143477    0.62760527478097    2.36264004961900
O           0.03130647935717    2.83598509877175    2.98553098367912
O          -1.16261330053755    0.85228764558619    3.69806088159797
O          -1.13624255776572    1.46833747199372    1.33423611275780
H          -1.53359696880460   -0.13386188302772    1.53267260223451
H          -1.11083740603140    1.52703974465602    4.36664648697943
O           1.49625222962495   -0.12817948516615    0.09303899532735
H           1.31804968545418    0.18859468969411    1.08251474452958
O          -0.88779821017001   -0.98823126280409   -2.40976632033699
H          -1.39758973096369   -1.34265458415553   -3.13842360324853
O          -1.58550967065496   -1.09459183938051    1.71832767686883
H          -1.41137266005008   -1.16617551260575    2.65901281236741
O          -0.16501208536950    1.37944404327223   -1.08635103484205
H           0.92648627854475    0.53079637414272   -0.46860126789730
H          -0.73779099819564    0.73954827103133   -1.53707435822602
H          -0.61596319104313    1.59302136265203   -0.23577074389682
O           0.00822517367299   -2.12170856364305   -0.10369920652550
H           0.96024281430291   -1.05209013407653    0.02124655371419
H          -0.62254442890071   -1.89127925932731    0.62410105549114
H          -0.45705408558123   -1.89324878614326   -0.93093220185119
N           1.62411300053185   -0.27818532976593   -3.06860060814029
H           2.26611269208992   -0.67848195945561   -2.39460242006912
H           1.58088560780326    0.71907846263954   -2.89058010935968
H           2.01558244821625   -0.41500216370331   -3.99204594646953
H           0.02823617875802   -0.80199154641348   -2.74790523613837
