    26
        -50.44493653  Gyration_radius:  2.70444203239 Dipole_moment: 6.282
 S          -1.90973047872829    2.08662455744657    0.88530008158686
O          -1.36357742287285    2.14992148340816   -0.47327952692428
O          -3.32755707826482    2.22003847860567    0.97137057877647
O          -1.30351265092015    3.37954620494376    1.62471238963438
O          -1.34581794814234    0.93700585990422    1.59338624391409
H           0.21395962169689    1.51042159355790    1.54736758606529
H          -2.09965151400101    3.86516311609201    1.81303545289689
O           1.08091226141403    1.92035307913114    1.34605573223650
H           0.88344431453543    2.85162033472671    1.22739047576806
O          -0.32771574016035    0.13023688331521   -1.46188235150194
H          -0.79613875415083    1.01442294149970   -1.13052924137160
O           1.71878220763269   -2.11108113276937    0.40023038534575
H           2.35844197808857   -2.73849070784620    0.73719705670173
O          -0.99170355273090   -1.38550412806999    0.45732023384526
H          -0.13034159085117   -1.67494812264707    0.79645419951449
H          -1.25461499127742   -0.61352735605310    1.01177034752595
H          -0.65213943536123   -0.57636134808689   -0.77618240473387
O           1.99735367355618    0.40535627433240   -0.59825394672004
H           0.70153568731712    0.27753641277733   -1.20746452473562
H           1.79726573704838    1.05327322747985    0.12343299540958
H           2.10477051787938   -0.45541177305356   -0.15048522938239
N           0.49435600738693   -2.89976501531779   -1.86381789793126
H           0.72404087511647   -3.75729010997877   -2.35003417683869
H           1.36233248404564   -2.47587893753820   -0.45304318877780
H           0.52731672270160   -2.14146468448425   -2.53503183148443
H          -0.46201090094962   -2.97179713137183   -1.53501941882852
