    26
        -50.45446010  Gyration_radius:  2.7434285653 Dipole_moment: 5.601
 S           0.48497269065680    2.81982258750593   -0.03694656272978
O           1.10566389245504    2.25557053364838   -1.24249754600872
O           0.83503157189841    2.09287535267325    1.15662193116048
O          -0.95013657866077    2.98329979350950   -0.22526620982591
O           1.08299183235049    4.28215041036327    0.11215631028315
H           0.76361808169697    4.71486082101494   -0.67401939589582
H          -1.76044920980779    1.63306106920613   -0.32430602524330
O           0.92360940726639   -0.50844854433942    1.50316089205596
H           0.98570042667171    0.46895981102551    1.57307464657276
O          -0.54479841754110   -2.87717285375699   -0.70399585368022
H          -0.91525138637864   -3.76060622696359   -0.70054731540041
O          -2.19927055111531    0.75323618180487   -0.50207832038672
H          -3.01292953144848    0.95943598454875   -0.96425579670086
O           1.92122075900984   -2.81179173506561    0.47343613151923
H           2.87442511085145   -2.83131236777432    0.38408784504209
H           1.71012764756923   -2.04366854030704    1.03399318239249
H           0.34656978724216   -2.95852608742698   -0.31827638985826
O          -1.62787878991654   -1.26815085042906    1.34727545085696
H          -1.40938394771736   -1.90224278302209    0.64395066522397
H           0.00146568887691   -0.74422900082325    1.75276182465657
H          -2.02120861171061   -0.50669500357385    0.89741106403795
N           0.28883058823236   -0.17232647722248   -1.06450182193043
H           0.71618841566588    0.78919723887591   -1.27370500607176
H           0.62228404047466   -0.44040336671492   -0.09439763318028
H          -0.73849952556978   -0.03291229706518   -1.01218840309278
H           0.51710662894696   -0.89398365968939   -1.74094768378884
