    26
        -50.44529007  Gyration_radius:  2.48626800838 Dipole_moment: 3.307
 S           1.29450304134579    1.79082139666200    0.60654959694753
O           0.96315327822699    2.46115780654178   -0.66333868002492
O           2.57899541204803    1.15893424821552    0.61705631664930
O           0.19308395069188    0.92086745424797    0.98859504935962
O           1.33920159237980    2.95051406229538    1.69197534371862
H           0.45934570331502    3.31479527357343    1.66177156970120
H           0.12728368668353   -0.54569138385512    1.69344725328604
O           0.00719367223989   -1.45622867402633    2.05691126598538
H          -0.30046167329097   -1.34159141604011    2.95702476721014
O           0.03278243547036   -1.15924138838882   -1.91619789846526
H           0.39656006736233   -1.33605373659493   -2.78455690922743
O          -2.76526764371355    0.71313765358272   -0.01791897253333
H          -3.62110314939361    0.64846639465360   -0.44616510613334
O          -0.89084135362077    1.21781158068396   -1.66695412208185
H          -0.08674565861941    1.80585417248246   -1.23652106959891
H          -0.50904171280617    0.27627200799005   -1.78744384740629
H          -1.62543206319231    1.11920725300787   -0.95011529156129
O          -1.86227302328205   -1.73705625263829    0.11010849972446
H          -1.24028936497977   -1.76454051023059    0.86507720449933
H          -2.46728915478441   -0.22506476679039    0.15679827502142
H          -1.29839767068647   -1.74524303147352   -0.67526478158350
N           1.93544403622959   -1.44341809165660   -0.21877486167846
H           0.81462103998825   -1.27500111568181   -1.23685871574490
H           2.25002107842932   -0.50624170496285    0.04668815962805
H           1.52278425531453   -1.85379523461096    0.61286237008366
H           2.75216921864164   -1.98867203698159   -0.46475543578621
