    26
        -50.45568718  Gyration_radius:  2.56698622726 Dipole_moment: 1.981
 S           0.13892133361345    0.48283594038071    0.87293128454761
O           0.55030060682670   -0.87779716054846    1.16512323906858
O          -0.43738603355969    1.13314508928261    2.14650423799159
O           1.24067314645839    1.31212031473343    0.42093514148394
O          -0.95512661772233    0.47846240865340   -0.13101443483964
O           1.20572905111189   -0.76510677778593   -2.93334216690094
H           0.78039531209379   -1.61454837673170   -3.06256383787521
O           1.14817300074046    2.99596192607367   -1.53888102863950
H           1.30189973338191    2.42830179387428   -0.73926147463570
H           0.75112583429363    3.80875557050937   -1.22061933337513
O          -2.66583053553390   -0.08299552476738    1.92829745795770
H          -1.35512878434800    0.72396101663538    2.22680782792472
H          -2.51118408841890   -0.01384310947947    0.97688007292419
H          -2.40084204242760   -1.00620637686622    2.17841554436572
O          -0.36166564411156    1.15601327291450   -2.42046162021175
H          -0.68451569940112    0.85898888748329   -1.43960018858712
H           0.23662386044216    1.96688816282787   -2.23016613879080
H           0.26704338339734    0.39166554955975   -2.72242990827997
O           2.45795336403191   -0.93797763369309   -0.65201578771974
H           2.82593983893767   -0.07206155663642   -0.45062461282427
H           1.78399731546157   -1.07331982611670    0.04802977875176
H           1.75445726138773   -0.85011150062265   -2.10200370976008
N          -1.48261930885117   -2.43809281620833    2.40601322798148
H          -0.64443279835240   -2.03316709212299    1.98511583180663
H          -1.68476768562893   -3.30364452300038    1.92177420850278
H          -1.25973377380818   -2.66822765833246    3.36615637912331
