    26
        -50.44145374  Gyration_radius:  2.4541776015 Dipole_moment: 2.179
 S           0.17090427216490   -0.70024763806079    1.64178853033296
O           1.51057585243583   -0.81568657912685    1.11693402860214
O          -0.86433782835892   -1.28986163859434    0.81668842624414
O          -0.15334932641826    0.66981964485694    2.05952418601284
O           0.18469272959212   -1.55242875494071    2.99513566434758
H          -0.70768856271467   -1.51190776848063    3.32776849644218
H           1.08975355993770    1.58793260031493    1.45577719816663
O           0.97364346722433   -0.42697424811206   -2.88056740452960
H           0.23263526406070   -0.58770457782995   -3.46832275162921
O          -1.86960001306857    2.29569871694359   -1.01724091568159
H          -1.77035838110695    3.16957781278478   -0.63420686021356
O           1.79437488535206    1.81592050862153    0.79974835824959
H           2.40130807130909    1.06773241205177    0.88038181611093
O          -2.54113304270280    0.76395055525013    0.95773134663596
H          -2.28657395094853   -0.13272646682859    0.67705478594580
H          -1.78518993216993    0.98693367158369    1.53624826297332
H          -2.29408249277629    1.72668053203619   -0.30383497483503
O           0.21146657331589    0.87959627745930   -0.89742377549886
H           0.94275112676299    1.33223747179227   -0.31309249781474
H          -0.59442191465507    1.50513848574911   -1.04903998139047
H           0.57045597827085    0.42742468179735   -1.77318445322859
N           0.96331520060385   -2.34973654052632   -1.16022223121441
H           1.06113652122582   -1.26478557992694   -2.29019912384211
H           1.38406173693683   -3.26799407057275   -1.22772969555511
H           1.38407952731991   -1.86650043053786   -0.36248387362119
H          -0.00841934166980   -2.46208907772268   -0.88723257097890
