    26
        -50.44145397  Gyration_radius:  2.45420754749 Dipole_moment: 2.186
 S           1.17952027037030    1.04989123480894    0.85084882908989
O           1.75106336112580    0.09177620773578   -0.07417013061735
O           0.43513819351652    0.47423560529403    1.94526835610471
O           0.43958686915269    2.11933471683433    0.16838006283083
O           2.42323023597786    1.78254730435225    1.53949537970006
H           2.94246328987578    2.12950220578630    0.81926718334179
H          -1.09961636825273    2.00337157167980    0.77393937682524
O          -1.35814061111133   -2.74409593691232    0.25279737588142
H          -1.15291101231205   -3.29622080552820   -0.50444390374535
O          -1.38082826512654    0.38068650995468   -2.78217388893116
H          -1.94091485438723    1.14849203297749   -2.91254140390174
O          -1.88168012252747    1.52078945048938    1.14075734992982
H          -1.54054736325104    1.18205066689833    1.97946452822232
O           0.97212478680018    1.33664897504052   -2.28634057013798
H           1.43411192375773    0.62779572544356   -1.80504154587871
H          -0.43607878922613    0.72722539147203   -2.75897732562878
H           0.70620600202548    1.90959269542443   -1.53997197327667
O          -1.16946563634111   -0.33771948646523   -0.37628337305228
H          -1.35673935451698   -0.11087246952249   -1.36508628799449
H          -1.60057624350710    0.35905906442790    0.26382506780820
H          -1.36010494871609   -1.33783307273808   -0.12499524343793
N           0.89080424318744   -2.23621418654225    1.41129147800902
H          -0.48907725403822   -2.66502945909715    0.79709367709781
H           0.66843444864027   -1.32718063511159    1.82480186606612
H           1.38986591884535   -2.78136036137466    2.10306748555222
H           1.53413133001899   -2.00647293534691    0.65972762014682
