    26
        -50.45445996  Gyration_radius:  2.74386996414 Dipole_moment: 5.597
 S           1.90272855163360    0.78702569204550    1.98597505033566
O           2.22722831849081    1.52203883255306    0.75658729710378
O           1.71775955215468   -0.62278056120540    1.75416724629562
O           0.79117197888094    1.41800102000965    2.68463017351628
O           3.16798282669295    0.94507350875475    2.93046652102110
H           3.18679237493076    1.88350946135718    3.09235607974488
H          -0.60070814650375    1.31016781250111    1.94930787121961
O           0.38882550611704   -1.78227501928559   -0.19081455648775
H           0.95219001106527   -1.55503495075798    0.58063514774313
O          -1.91276664347370   -0.11937233253589   -2.32060438861677
H          -2.69334508628883   -0.29418978605271   -2.84766421155935
O          -1.42260028636898    1.31784118158916    1.38121443581745
H          -1.96264034276888    2.03393553867105    1.71846316963595
O           0.09732103089199   -1.88028200996713   -2.88611510456709
H           0.27730778172204   -2.08203503840997   -1.95033747090587
H          -1.23715971794095   -0.75416463473825   -2.62309888357414
H           0.91467706970371   -2.03427352214785   -3.36077447475251
O          -2.15732727600678   -1.15561466318151    0.29540314253927
H          -0.53528136171025   -1.82150912706425    0.14469113895481
H          -2.05282471068585   -0.39627584231833    0.88641046300927
H          -2.24689705774644   -0.78176687969509   -0.59711872629588
N           0.23656182578544    0.82806971654758   -0.70920979554436
H           1.12376079680379    1.19960628478677   -0.23423030795346
H           0.29824823601756   -0.22966933495652   -0.66675175303914
H          -0.56094834370344    1.11659160825979   -0.11047782518884
H           0.09994312234182    1.14738307516286   -1.66311023841381
