    26
        -50.44145349  Gyration_radius:  2.45433279712 Dipole_moment: 2.173
 S          -1.72604035525135    0.43050509280763    0.23237953445418
O          -0.77393361467929    1.47055954193484    0.56627883592483
O          -1.60393790845429   -0.78123557896067    1.00701370970444
O          -1.79335262915362    0.17055925698819   -1.21154361520254
O          -3.16367175319027    1.01918702266058    0.61269331297512
H          -3.23857495143065    1.83498416756202    0.12538432159468
H          -1.38877109415043   -1.43159405723179   -1.35969340462697
O           2.39814590447111   -1.13529001105761    1.54805964684412
H           3.12407550475423   -0.50814409019233    1.55688895690905
O           1.86519692739246    0.45240839216712   -2.47192825228370
H           1.63041095868908    0.03694284626094   -3.30409354815996
O          -0.91380887082505   -2.25991238312439   -1.10043777584697
H          -1.28309147681564   -2.44399917997993   -0.22605462831149
O           0.94992949561773   -0.72579576290774   -0.44095749949923
H           1.41757496626366   -0.32115647222938   -1.26642954232524
H           0.28174991029091   -1.47610008802118   -0.70915203317961
H           1.60542772444768   -0.98205510305913    0.33658827746437
O          -0.09952909761399    2.04923754002663   -1.93592801559016
H           1.20078682878307    1.19619010978313   -2.33634298414330
H          -0.80842778788727    1.37799086075499   -1.98966965597136
H          -0.05899819099550    2.18236796951585   -0.97253942083977
N           0.43104842228996    0.01543387149517    2.75762710449067
H           1.66771902400437   -0.74068924915494    2.15546985922602
H          -0.35170026276529   -0.44103015875884    2.28238814387355
H           0.22147654649768    0.04622577222604    3.74753122241719
H           0.41029577972599    0.96440972050509    2.39646744010923
