    26
        -50.45490197  Gyration_radius:  2.54722913064 Dipole_moment: 5.618
 S           1.06245289005075    1.90472641618201    0.90744048447071
O           0.81113743395187    2.87717774037884   -0.12447617270739
O           2.29737750741566    1.13896935043123    0.68808023199474
O          -0.04225153426147    1.01539849657690    1.19744908930650
O           1.31627395785574    2.74376994607457    2.24139099813551
H           1.62363704940325    3.57568485309615    1.89504681287294
H          -0.34004698450205   -0.46055977597472    1.68166000166030
O          -0.37454702519015   -1.42646270880637    1.92071514354416
H          -0.70691091434034   -1.46316687424928    2.81829552089497
O           0.38961475416916   -1.12629875885184   -1.94219801611948
H           0.71505170763715   -1.18992492375842   -2.84075917968863
O          -2.97143615296471    0.47957432030963   -0.79040559556467
H          -3.61818022964637    0.38637243335309   -1.49141448377241
O          -0.54260714728175    1.23986056839599   -1.74766762491633
H          -0.06170808835668    1.88268378656395   -1.19298679481730
H           0.03607674824356   -0.17396175992119   -1.85084659531498
H          -1.42240482155638    1.12690048307445   -1.32840957773890
O          -1.84007826796490   -1.95036181175730   -0.40643445755266
H          -1.43279175194128   -1.86030780236161    0.46904190830651
H          -2.66661355845591   -0.42828931884272   -0.57410034565624
H          -1.12383580347118   -1.81360226335911   -1.04269693975321
N           1.79601223208522   -1.32843970454762    0.30587432949739
H           1.32013987704859   -1.33579762857993   -0.63300450909847
H           2.06325760664161   -0.28561202194517    0.49488937385582
H           1.09998022354717   -1.59935688163904    1.02263024159850
H           2.61240028188768   -1.92897615984176    0.32288616656157
