    26
        -50.44145357  Gyration_radius:  2.45429828018 Dipole_moment: 2.176
 S           0.50474027817809    0.71649943637925    1.56521582679177
O           1.13653729829340    1.28026819062919    0.38932499898945
O           0.75124008221299   -0.68980394494148    1.77659784513684
O          -0.92089929273158    1.05758576998961    1.65707645287355
O           1.18470227043006    1.44610860813123    2.81556644034224
H           1.05091344824164    2.37801495759480    2.66654360300712
H          -1.69428432652019   -0.41010618201072    1.67004736105405
O           0.82122341029761   -2.19390720520366   -1.98671950737386
H           1.01339712323585   -1.81785900296232   -2.84811399422936
O          -1.80424676527527   -1.36328898655645    1.42866822855409
H          -1.04050994923670   -1.77369271964171    1.85646989050460
O          -2.24672332740524    0.89668630114956   -1.98567583821406
H          -3.15455785346681    0.90485203557501   -1.67581234464029
O          -1.00256515381161    2.59298079341000   -0.47818206061620
H          -1.25393449686509    2.19005621622132    0.37648044837566
H          -0.06632444577127    2.33096075299743   -0.52516375421194
H          -1.79113739123637    1.66929554176679   -1.52915473657293
O          -0.75171420782800   -0.70863357767987   -0.74523142631031
H          -1.39451169126479   -0.14561968051046   -1.32294707695308
H          -1.23416476066077   -1.10921999695738    0.08426067211854
H          -0.17977764814388   -1.39663401373461   -1.29240456944328
N           2.51830402180772   -1.15301850717183   -0.34557044204784
H           1.58501572040708   -1.89741949015179   -1.36477670353127
H           2.54520813945321   -0.16445825395542   -0.57666474055335
H           1.96508629055011   -1.18505603907260    0.51451983560410
H           3.45898320710156   -1.45459099330084   -0.12435441867195
