    26
        -50.44529038  Gyration_radius:  2.48561513368 Dipole_moment: 3.294
 S           0.87278698956852    1.81829514264158    1.08175043120161
O           0.94231368044881    2.55304916954467   -0.19370019751591
O           2.12111345374404    1.26021187887426    1.50553968348230
O          -0.22321704705503    0.86375278253487    1.02304071606191
O           0.45833513950567    2.90346418684359    2.16617184890384
H          -0.37504604757516    3.23231587808973    1.84189612693092
H          -0.41846740347095   -0.64135943979754    1.61267703651229
O          -0.58971203808717   -1.57675343853943    1.87973797971442
H          -1.19593952461007   -1.53215042840203    2.62035490526944
O           0.77122405017882   -1.03402726387218   -1.82885099334780
H           1.42192797866271   -1.13761638311351   -2.52417486918316
O          -2.63690765739398    0.55823542517988   -0.94731110630360
H          -3.28628189181652    0.46933783117128   -1.64763464594076
O          -0.35357275181551    1.26784645504284   -1.82525002951484
H           0.20654881151471    1.87354605899372   -1.12117044730004
H           0.11519929560682    0.35823755818360   -1.84062606634371
H          -1.28010945882499    1.08420093890717   -1.41177738424994
O          -1.65427980929897   -1.84009849811808   -0.60303427467723
H          -1.32803488490085   -1.87897385877013    0.31869946301573
H          -2.34798884558166   -0.36979010870174   -0.71335263541792
H          -0.85684635114555   -1.76859723319397   -1.14501820767763
N           1.99341020833257   -1.32088538947619    0.40837185062706
H           1.27942000652032   -1.14951597979731   -0.92621907868916
H           2.12943984522423   -0.38538784290147    0.80087873465575
H           1.35241818530133   -1.80291573202007    1.03045372845723
H           2.88226602696479   -1.80442171929566    0.43854744133234
