    26
        -50.44747976  Gyration_radius:  2.44645573807 Dipole_moment: 6.063
 S           2.30010608375559   -0.31136740081579    0.70040720881240
O           1.20918013403759   -0.80336918149548   -0.28497329188401
O           2.95050316348915   -1.41667369417344    1.31035208349840
O           1.50535088815217    0.49827956187238    1.77525123769506
O           3.07138268254590    0.65268027302750   -0.01941465073688
H           1.68723953113757    1.57005868307925   -0.38182232098722
H           0.74756615813706   -0.00943612404047    2.15969131347452
O          -0.78786622820113   -0.46010437879938    2.55224289937523
H          -1.03615536458813   -0.13811940639597    3.42004819088857
O           0.88837116578157    2.12507438491467   -0.49143221048917
H           1.09416422120171    2.95517613869258   -0.05624752829486
O          -2.17162809557821   -0.73909042796396   -1.18572037721773
H          -2.90881496251200   -0.97828844891955   -1.74799804410392
O          -1.45211386560439    1.17797117985371    0.66856442153484
H          -0.61944842998064    1.50780517645815    0.27803003773698
H          -1.84215379580399    0.59122318975808   -0.00023530397864
H          -1.13610707556770    0.20910447197866    1.88411417072048
O          -0.68943427573090   -2.27860416176449    0.50373837017370
H          -0.85717082982134   -1.91157030533729    1.38446809755432
H          -1.33771816081153   -1.85628988778487   -0.09649997317936
H           0.54729747745863   -1.49597753889854    0.07221277722819
N          -0.18313618972129    0.27472560652260   -2.59924007786803
H           0.56722337581174   -0.33282254476901   -2.28612504840890
H          -0.10645205190649    0.38332349290478   -3.60291066277263
H          -1.44376703333663   -0.39010349493426   -1.78635493609157
H           0.00358148766318    1.17639485702955   -2.17014640269121
