    26
        -50.45446017  Gyration_radius:  2.74424738967 Dipole_moment: 5.606
 S           1.35784380756202    1.17629356197848   -2.22710523027045
O           1.72206780049324    1.62230890579762   -0.90648356463967
O          -0.08333636890084    1.29456100299487   -2.48422916499572
O           1.82881881392001   -0.16504061758105   -2.54443872461302
O           2.06202460208812    2.15148893518788   -3.26215237374810
H           1.82731928983855    1.76443695739147   -4.10032752318238
H           1.30321775303908   -1.29778931203310   -1.57967155153180
O           0.50741905849114    1.11351384293735    1.36479216786711
H           1.07926409864600    1.44488407533631    0.63860605916130
O           0.84248897306953   -1.98191893479505   -1.01585264469412
H           0.90699478525151   -2.80414297215776   -1.50361799164666
O          -1.92870534293322   -1.42700796262478    1.81628635715314
H          -2.28179495915401   -2.00304067475933    2.49538038333476
O          -1.89113783426448    1.17953665565521    2.63088317354730
H          -2.00139019716635   -0.52072453347915    2.16904380349404
H          -0.96991814834502    1.32605152461951    2.35036638688913
H          -2.32559599146364    2.03231438224372    2.59775051661914
O           0.89345396682385   -1.49808026476495    1.74077540365357
H          -0.06465206001028   -1.63841441902553    1.82318210536398
H           1.12204888972080   -1.78354081051035    0.84461909913998
H           0.89923787947569    0.25933880934534    1.65650388386481
N          -0.99683329993680   -0.05468138718958   -0.49970521283125
H          -0.50545403083756   -0.95949260890441   -0.63192021100392
H          -0.77728517213570    0.54005055284938   -1.36506480802512
H          -1.98578395928482   -0.20777432470877   -0.32925344261481
H          -0.54031237400098    0.43686960620771    0.32163309369782
