    26
        -50.46313968  Gyration_radius:  2.55643943096 Dipole_moment: 3.432
 S          -2.06703566504882   -0.65118299790114    0.58737337940093
O          -0.83263417357333   -1.29779406074906    1.05324964515098
O          -2.08313345602686   -0.56347793809685   -0.84804041472768
O          -2.30012542479528    0.60005954899751    1.28574932208519
O          -3.25356382665166   -1.60494288169742    1.02452428742086
H          -3.41103781306147   -1.30661964907927    1.91403583288322
H          -1.11308060349847    1.62481592463967    1.00247507211783
O           3.01709857881652   -0.88781599250043    0.76257093032629
H           3.67327054513623   -0.21777056570563    0.56762114669816
O          -0.34140095085759    2.21316266914425    0.78683051102955
H          -0.55602260374877    3.06907882542358    1.16262008215753
O           1.01456186972419    0.25974719921652   -2.72150357159361
H           1.75165191891943    0.87199974664002   -2.73553938947424
O           1.08792871755066    0.25332446708571    2.13260808939473
H           0.78899875540008    1.07904767440918    1.71761665041128
H           0.36995384554531   -0.37932095560131    1.94391849335565
H           2.37725228306691   -0.47324062907473    1.40166620338406
O          -1.00088153071473    1.65213002808541   -1.85239793222492
H           0.20522896195230    0.81001739469541   -2.51453382654629
H          -1.56224585054433    0.89079986314389   -1.60483138451867
H          -0.69683103176258    2.01890552938961   -1.00541895859369
N           0.98612798085164   -1.60395248105483   -0.82348329582046
H           1.86709480888728   -1.43337458866886   -0.27473060585499
H           0.97329255979377   -2.54111477905046   -1.21148706895576
H           0.17567002562350   -1.49365616708738   -0.14904356949500
H           0.92986206895455   -0.88882515456179   -1.60184960801304
