    26
        -50.45445994  Gyration_radius:  2.7440626702 Dipole_moment: 5.597
 S           1.92449731449530    2.01222815305686   -0.65760733945082
O           2.09275590198392    0.70550300169476   -1.24050729731832
O           1.82497040535213    1.96704024620833    0.80697289906823
O           0.81792860770644    2.77038066224116   -1.22546007698816
O           3.24009355788729    2.84063148404474   -0.97578498370063
H           3.03066944861749    3.70070977161712   -0.62408194840967
H          -0.59600586009143    2.08358560952600   -1.08690863194879
O          -2.17159701433404   -1.65606528552410    1.26548214465703
H          -2.95276099121395   -2.19927412755280    1.37674260384398
O          -1.47270342042410    1.66131935187142   -0.86033076656986
H          -2.12165207146606    2.36332149091259   -0.92539574010609
O           0.81984191950355   -1.51077651558155   -0.63965957312307
H           1.42220335330871   -0.81691371039589   -0.98580165950108
O          -1.68104766865390   -1.06691989820939   -1.45260848530523
H          -1.68837070081402   -0.10106367649728   -1.51470834497147
H           0.01127423300744   -1.47822803337991   -1.19933370780754
H          -2.01770057314079   -1.27432120950966   -0.56487915396828
O           0.11490234721949   -3.14324898861103    1.40928060037518
H          -1.41029129382172   -2.25408597834048    1.38287421691515
H           0.49840533294275   -2.75854606931615    0.60076558632843
H           0.85085065505736   -3.42639726476951    1.95270094075501
N          -0.11977305741645    0.31041998584985    1.06508166362494
H          -0.49645506161786    0.01774084777426    1.96117494441314
H           0.70016673331993    0.99944242422723    1.12614208432480
H           0.23277970077520   -0.52157000216034    0.51017666373859
H          -0.85298177971948    0.77508770130766    0.49567336148560
