    26
        -50.46313985  Gyration_radius:  2.55664140275 Dipole_moment: 3.429
 S           0.92823579384163    2.04490107677423    0.01171375068047
O           1.47155038484856    1.38197907952593   -1.14306632285991
O           0.90735277637452    1.13800968991038    1.16763962664836
O          -0.36607875998669    2.67196150741999   -0.18688126655404
O           1.91250320576981    3.22439117572228    0.39716944766150
H           1.32471720714127    3.80974790416390    0.86289188861684
H          -1.47711313176455    1.57028212625303   -0.48930404000600
O          -0.48150790950332   -2.34291537915624    2.17911447991874
H          -1.16755330917308   -2.96250108124428    1.92812844080078
O           0.63724414604117   -2.16848820263018   -1.84487086865271
H          -0.09866026804791   -2.77966993438706   -1.89971928959063
O          -2.11959038980853    0.83356115087721   -0.66998068794720
H          -2.94436209531087    1.26207220479647   -0.90659653911808
O          -0.31504039992270    0.11095908193083   -2.65353917890997
H           0.32264634862663   -1.32139674368877   -2.27385373877629
H          -1.08110447290747    0.27468492155388   -2.07843242295340
H           0.39756320105383    0.66695686997308   -2.28051358357119
O          -1.45541289022598    0.08251898226584    1.91648817318580
H          -0.91413868281469   -1.44777118846384    2.21517230968600
H          -0.61857209072135    0.57595195417309    1.82893040764385
H          -1.89211687167497    0.20564075523103    1.05773545493948
N           1.42093185165650   -1.37225313028474    0.56960312051189
H           0.77409191575857   -1.86970128004769    1.23338686239879
H           1.16195856155357   -1.64319652304521   -0.42018921096450
H           1.28345500421350   -0.33263192128041    0.72544361652313
H           2.38900087498803   -1.61309307634388    0.75352957069057
