    26
        -50.46313951  Gyration_radius:  2.55704577048 Dipole_moment: 3.448
 S          -1.93665849081254    0.91479324716314    0.67910205229126
O          -0.79958267095149    0.62454311115723    1.56350336814011
O          -2.30960768220792   -0.25562269959319   -0.06870576493293
O          -1.69266729630294    2.10487870554948   -0.11580114393337
O          -3.14805533936346    1.28449981135913    1.63009630660852
H          -2.99583872143242    2.21309223447513    1.76986552471487
H          -0.42168388066333    1.89753220186541   -1.05444005182850
O           2.83487125779022   -0.72640903599570    1.37918502782968
H           3.55009533671263   -0.82951273694060    0.75041375601251
O           0.37874429601064    1.70318895454891   -1.61092233634177
H           0.46425696570538    2.44767857798110   -2.20947349545644
O           0.30055629351796   -2.53734513717351   -1.41348436402849
H           1.12367681292876   -2.54698337667729   -1.90386811890251
O           1.63083571467190    1.54948715432678    0.85931300914782
H           0.76562042556957    1.36268444423358    1.26894310377471
H           2.49137470277443    0.19981840439085    1.26092077933190
H           1.42834348772056    1.64305935496802   -0.08595113927588
O          -1.04945063346389   -0.54556740538697   -2.39585469485249
H          -0.46169304613421    0.22230260729637   -2.29953751685529
H          -0.28040181587640   -1.86049111165348   -1.86633134064798
H          -1.68483652078046   -0.46520347610124   -1.65698347552546
N           0.35665578849389   -1.69463072261282    1.10903080834228
H           1.36472005284749   -1.45027344769873    1.28391112546084
H           0.03648626579100   -2.40804198171299    1.75517722678204
H          -0.20634895412450   -0.80885775958267    1.25920601175091
H           0.26058765158010   -2.03861991819961    0.11268532238483
