    26
        -50.46313970  Gyration_radius:  2.5565663722 Dipole_moment: 3.434
 S           1.37531406012551    1.60184659958230   -0.76611484219431
O           1.80771344303100    0.38685850899504   -1.40252097488215
O           1.08708277271748    1.36777730750671    0.65567903388288
O           0.27288252539175    2.28403212022193   -1.41958105407887
O           2.58528575446554    2.62303295468350   -0.80602837803751
H           2.12665762991502    3.45415330689372   -0.74338604531004
H          -1.04600719060021    1.39196055854650   -1.36084349848250
O          -1.11928340704803   -0.90719172849253    2.89791347673131
H          -1.91722628805265   -1.43519579294282    2.85173540295767
O           0.20643006651883   -2.85587097460514   -0.55434701169426
H          -0.64881538696962   -3.27256020828083   -0.43994725751273
O          -1.83153246175632    0.78707880741201   -1.28733490098699
H          -2.52182605363007    1.19497185612927   -1.81361636481353
O          -0.14618805223173   -1.09755082761360   -2.43561295805935
H          -0.88135856760663   -0.54615282286345   -2.11946682960157
H           0.65621994239925   -0.57131746884798   -2.24764435784864
H           0.12034004188042   -2.27013498695340   -1.36070672361960
O          -1.49061883434396    1.23821594066826    1.42827162506761
H          -1.33391406988086   -0.03934176805709    2.46148990034078
H          -0.55892552424780    1.47104528613822    1.25748282239259
H          -1.84295250500967    1.01837179114098    0.55022468499213
N           1.03345985494672   -1.17404482058139    1.33347156670377
H           0.25721240678039   -1.17300638225049    2.04326461627268
H           0.76762165794498   -1.82713341525203    0.54403243536349
H           1.13325685132568   -0.17832919781507    0.98338206970745
H           1.90917134391186   -1.47151464336609    1.75020357270894
