    26
        -50.46313949  Gyration_radius:  2.55705990578 Dipole_moment: 3.450
 S           0.54113864757618   -0.53475203284563   -2.11430154417232
O           1.29307696935023   -1.43972451640582   -1.28754545229823
O           0.58430257924665    0.82738065044064   -1.56467084243131
O          -0.82315138579421   -0.94320188061579   -2.39666899290060
O           1.25908032463547   -0.46156254140259   -3.52413522173486
H           0.53877374693845   -0.19076713154991   -4.08343170889036
H          -1.68661958144057   -0.96003019649771   -1.05784653324040
O           1.17688261589335   -1.13942545390978    2.41667569705899
H           0.57141737678736   -1.04606987892392    3.15344062566453
O          -0.24273620730141    2.73276443895666    1.71528626263867
H          -0.78336519153133    2.64439367367826    2.50105944181150
O          -2.16774016363233   -0.94743918667124   -0.18797151283384
H          -3.03194140394265   -1.32370652856624   -0.36536271476209
O          -0.09718028589890   -2.58561739237812    0.67289345403934
H           0.46839813952312   -2.36212058210944   -0.09274565438843
H           0.75294387311041   -1.79878463939929    1.79529045817686
H          -0.92691468449144   -2.10523944366905    0.51419178900916
O          -1.60724370799454    1.76646330777464   -0.31043478674241
H          -1.98322926519001    0.89401892245389   -0.10844244873613
H          -0.82955965663018    2.50116387884671    0.94600004373722
H          -0.86751867918207    1.57057794617928   -0.91531486717072
N           1.58826996682611    0.97989711831186    0.86240777647105
H           1.25385377769102    0.83133865708860   -0.13271297511707
H           0.98499249188086    1.73420131969885    1.27895763309954
H           1.47039075475928    0.09816870433048    1.43586507091799
H           2.56367893881562    1.25807277717556    0.84951699279350
