    26
        -50.46313961  Gyration_radius:  2.55678647057 Dipole_moment: 3.441
 S          -0.27814914879693    1.93604954868753    1.10492325543457
O           0.92003820173623    1.58870969535514    0.32848413971549
O          -0.58153151720811    0.90346130858091    2.05875274481699
O          -1.37595622859482    2.31546240381396    0.23388512956771
O           0.08887491685327    3.24660301965015    1.91499059121543
H          -0.10788380146397    3.92065691916430    1.27315112186691
H          -1.77971463798961    1.09953509148202   -0.71340207171829
O          -0.17872468970357   -2.67699429767330    1.14848008695124
H          -0.38506380399954   -3.31549917974875    0.46442024647947
O           2.26142489327833   -1.26280499445395   -1.93903139952012
H           1.93991944127603   -1.98410566054175   -2.48107965190770
O          -1.97878883843103    0.30342577536328   -1.27448680422704
H          -2.77211304967313    0.52535894968620   -1.76565630943795
O           0.59413186229829    0.74874006213915   -2.21027834234999
H           1.70486719939673   -0.47122066249412   -2.17004945865805
H          -0.32948502160996    0.46885719957583   -2.10082841104922
H           0.79497320450675    1.22810864920403   -1.38488041709252
O          -2.18322196129594   -1.02254961368296    1.15681313708932
H          -1.73334798049209   -0.30503279574952    1.64558623610256
H          -2.23841526350662   -0.69952970417742    0.24189208702416
H          -0.99764447202819   -2.11183986065078    1.25211634893149
N           1.73167912715206   -0.89249171066725    0.65619807994177
H           2.06296529646439   -1.12209645488565   -0.31535228391077
H           1.36862290196621    0.10332748993142    0.63142296944971
H           0.96110488002181   -1.56900603450652    0.91853916769310
H           2.49143849985239   -0.95512514340034    1.32538981758840
