    26
        -50.46111860  Gyration_radius:  2.71513292884 Dipole_moment: 3.941
 S           0.29970328888198   -1.14656015991324    2.16769731647217
O           1.16161863495017   -1.66443356186912    1.10857721783547
O          -1.05885006681399   -0.92920735754206    1.71979297710429
O           0.88234817632127    0.02841898871180    2.79810742258660
O           0.23732171541532   -2.27477190066659    3.27737225881982
H           1.15774533176553   -2.39114381771651    3.48974390812546
H           1.14256633234372    1.30272787592910    1.88606371914163
O           1.24935053880872   -0.15014191554220   -3.35476560809856
H           1.34152895776135    0.50744040444118   -4.04511524132962
O           1.25658561731927    2.05268450083245    1.23987148661209
H           1.91992368904232    2.62946292084514    1.62063945673574
O          -1.86678852709541   -0.02844074026543   -0.64679959141469
H          -1.76230601262196   -0.62800134014611    0.11917839094083
O          -1.58308438461954    1.77970678867576    1.30661781267792
H          -0.70297933797504    2.17655473054019    1.31748604221282
H          -2.07675285918645    0.82254766017652   -0.21477141393908
H          -1.48659967740809    0.93174805451303    1.76843549182301
O          -1.33054349778045   -0.94303988089349   -3.19716315830948
H           0.33252670605665   -0.49322218621652   -3.42055616542564
H          -1.52193282232686   -1.88213584567566   -3.17877861368657
H          -1.67527171954877   -0.57938896023528   -2.36352174516434
N           0.83537635598081    0.18694020832573   -0.69609822695300
H           1.23864606730259    0.09705266101934   -1.64845611815795
H           1.13836352429661    1.04317689068695   -0.20460883082889
H          -0.21019217084109    0.18641339497378   -0.77547164782308
H           1.08169614032751   -0.63438740290608   -0.07347714996269
