    26
        -50.45490200  Gyration_radius:  2.54745762482 Dipole_moment: 5.613
 S           1.29791855660925    1.79104955860776    0.83100134175124
O           1.14657496594944    2.74918285259107   -0.23346743609026
O           2.43085154819062    0.87768597433537    0.62579029117568
O           0.10083889883694    1.04897287189506    1.16535431645960
O           1.66881530302480    2.64084461096400    2.12990895728777
H           2.07282796585230    3.41459155529315    1.74983062504796
H          -0.35880066412742   -0.36711691446017    1.69946050233949
O          -0.50177087782327   -1.31489198642672    1.96900686256215
H          -0.81793625350799   -1.28609172632680    2.87273038388061
O           0.21677714229172   -1.21951599857432   -1.91190487069052
H           0.51433928330819   -1.34776762025317   -2.81323666024972
O          -2.91059521862244    0.80305364611778   -0.75263819580255
H          -3.57830826958609    0.76791975215570   -1.43918898801036
O          -0.43109365570706    1.24316870380507   -1.77845800449049
H           0.13558036436644    1.83904784324773   -1.25288821459738
H          -0.02262881610734   -0.22991831721009   -1.84577262744031
H          -1.30807309287564    1.24726322151226   -1.33867111756827
O          -2.06357660700975   -1.73152495994855   -0.31646712013591
H          -1.63144195304668   -1.66449326248251    0.54911950033339
H          -2.70983662140316   -0.12825053474042   -0.51531046850451
H          -1.34883712854882   -1.69793927302272   -0.96809606880498
N           1.63345577680021   -1.52151668193895    0.31844425714952
H           1.14219141542504   -1.49794763904139   -0.61223549836086
H           2.02599700470252   -0.51344844110733    0.47367199553227
H           0.92382486409702   -1.68791150429872    1.05361106153511
H           2.37290604890668   -2.21444575069141    0.34040519569228
