    26
        -50.45271703  Gyration_radius:  2.43555154738 Dipole_moment: 9.048
 S           1.81659982051954   -1.44996248905238   -0.24645001141519
O           2.47024828639444   -1.09377524080592   -1.46846692959845
O           0.65876416609057   -2.32939315273504   -0.40680546352827
O           1.45009662052498   -0.28221524413146    0.55625385856215
O           2.86019926788468   -2.26788963444417    0.63627583529809
H           2.38737868180458   -2.46607337765473    1.44041791668401
H           1.45575493245468    0.77373669953949   -0.59170089391609
O          -0.44205145032461    0.82639640518838    2.60008066103252
H          -1.17607826990728    0.79744767869060    3.21723651661679
O           1.28786949555699    1.45194388904043   -1.30469511229976
H           2.09416979536846    1.45371664632889   -1.82380842091016
O          -2.37362560566689    0.26893216003994   -0.72331353619292
H          -3.15411116729381    0.30672559563629   -1.27710905596495
O          -1.11037126226960   -1.38403048807058    1.32982205764192
H          -0.43617612721160   -0.06159786795828    2.15479370882463
H          -1.75110804785161   -0.99901732048206    0.71924229823265
H          -0.43346810699238   -1.79634630295249    0.75214423177331
O          -0.42998954556111   -0.64613958766136   -2.13800325158742
H          -1.64729608936731   -0.13482327071620   -1.29806848718081
H           0.26552258928193    0.02928657676022   -2.14616551591508
H          -0.04591748866021   -1.39824859488714   -1.64077921917525
N          -0.75418877684516    2.11078604263928    0.33007161735194
H          -0.52626049477434    1.66951306584147    1.27848181993065
H           0.08839507547736    2.04892335949285   -0.27368261303156
H          -1.49195923422833    1.50030355266877   -0.10448235207383
H          -1.06239708430539    3.07180090982804    0.42871033084803
