    26
        -50.45454409  Gyration_radius:  2.42331532918 Dipole_moment: 8.709
 S          -0.31509649978870    1.78594677095161    1.54270775309894
O           0.61682591217319    1.47742557779560    0.41704393681239
O           0.40926486193869    2.14542209705193    2.72039821036838
O          -1.04519519805036    0.39397573793218    1.83778990831899
O          -1.37635108276414    2.64398633775334    1.08874677129343
H          -1.91118327106374    1.55782862061099    0.02813953308155
H          -0.39669032445004   -0.25332508855863    2.13542664365749
O           0.34633975170974   -1.98284347320257    1.73310417375146
H           0.01885219324900   -2.70540408606167    2.26917555142644
O           1.03179186491582   -1.02599108414162   -2.20093191461571
H           1.33944972272053   -1.23119377614846   -3.08396296198679
O          -2.25792143140335    0.88702356506428   -0.61427875102466
H          -3.20076325435894    0.84261616957743   -0.44646594765267
O          -0.03265908287450    1.32140767085340   -2.14089030940504
H           0.62355486313898   -0.10217821684901   -2.25099870495060
H          -0.98711564826039    1.22064983018288   -2.01058447114890
H           0.27831746117311    1.58554496804701   -1.24831773864935
O          -1.08864570570697   -1.61376505116198   -0.41651374326374
H          -0.27272784864831   -1.90981426543854    0.94936602557710
H          -1.52714839448271   -0.74017123032214   -0.37050309054776
H          -0.45464090450247   -1.55146560281344   -1.14482184490520
N           2.07909278010995   -0.57057929331476    0.24484488327227
H           1.68803709820563   -1.26087820851686    0.90566062295538
H           1.86897464765721   -0.86471427508204   -0.73272748800848
H           1.49727717557186    0.36377224820089    0.39293125954078
H           3.06836033379112   -0.41327591241030    0.39566166300682
