    26
        -50.45568735  Gyration_radius:  2.5669833658 Dipole_moment: 1.980
 S           0.97101154983259    0.18188169050973    0.20498811957997
O           1.14521760527183    1.23689190247696   -0.77605416480583
O           0.99034482925883   -1.14085402878417   -0.39147313052830
O           2.11958467715492    0.30495331688986    1.22595449370210
O          -0.29052296855041    0.37933366032723    0.96277764252058
O          -2.48655986876311    0.38916445640237   -2.07515766684902
H          -2.97527024731569   -0.41410294492202   -1.88773674664297
O          -0.19248174823201    3.44737919565909   -0.86158641811834
H           0.42334706402325    2.67042698343615   -0.91075214840609
H           0.19438542695959    4.05909844862462   -0.23247549108210
O          -1.98541532367213    1.83947200757126   -0.06120967913217
H          -1.39551451587593    2.60563678962830   -0.40354899185911
H          -2.27258833448569    1.29573836688431   -0.89332654453664
H          -1.28304712740630    1.20004479587630    0.44078702393822
O          -0.06764857020904   -0.37632415591643   -2.68076911696211
H          -1.58189326483756    0.10022377225136   -2.38721789523789
H           0.47315614669135    0.41152471033991   -2.79261436855411
H           0.31522005617898   -0.81162776127495   -1.88923884628845
O           0.86842159438574   -1.02560057401068    3.00263646197233
H           0.07614986055053   -0.62998110759407    2.61565507421517
H           0.92415602723146   -1.94189848112341    2.62518344198015
H           1.78370308742173   -0.21294853281582    2.02293795342253
N           1.02812570174995   -3.25096570366040    1.52024104833292
H           0.28412431219591   -3.92601434160936    1.39660188324917
H           1.90486797497493   -3.75677624664675    1.51990467787349
H           1.02912604543777   -2.63467621849276    0.70549338816493
