    26
        -50.45192344  Gyration_radius:  2.54525940713 Dipole_moment: 8.318
 S           1.30043979138063    1.04381492517993    2.01729356904096
O           1.33663669811181    1.55200038494317    0.65154562045955
O           1.88159915361180    1.87527036655993    3.01743821058033
O           2.26332629681162   -0.27936056170329    1.95647842943094
O          -0.01394680387510    0.48936056506146    2.32960687922351
H          -0.16143298522540   -0.96667703086861    1.75084534385629
H           2.91427102842421   -0.05163467773832    2.61241123172799
O          -0.12093866958346   -1.84854481181784    1.28219163756171
H           0.31544151713726   -2.44199865529439    1.89490314491629
O          -0.85158767986527   -0.86318894269792   -2.58360352823896
H          -1.09495708526563   -1.53190003005485   -3.22343701769708
O          -1.63504832282244    1.38210486041789    0.33179079108802
H          -1.10348903133945    1.20258847518297    1.12475421777620
O          -0.38216992927522    1.84160129522231   -2.13935134291740
H          -0.66986192090680    0.99056197709030   -2.50086829535578
H          -0.97232591617420    2.50969721248529   -2.49017042530129
H          -1.01449906098913    1.71301507494231   -0.33873138788411
O          -2.25781303654960   -1.06644002316892   -0.43343501954464
H          -2.20189331939870   -0.12400008072918   -0.13010907679302
H          -1.48018130526598   -0.97184575863196   -1.80199437702617
H          -1.74809308230110   -1.56137679307327    0.21987758732024
N           1.14767503921668   -0.59031503988679   -0.73229817740007
H           0.51735218794719   -0.59345872309208   -1.55773840766697
H           2.08528901691698   -0.88243299070583   -0.98577834805072
H           1.20116619843204    0.39141158432049   -0.27616914486067
H           0.74504122082626   -1.21825261195832    0.00454790576432
