    26
        -50.45192356  Gyration_radius:  2.54513298978 Dipole_moment: 8.317
 S           1.29915610016533    0.79621832692033   -2.12771722304279
O           1.80910611313972    1.04457859836789   -3.43448384705816
O          -0.15169305862978    0.80409283207771   -1.98680428682743
O           1.77499527077331    2.08509251463945   -1.23673098129312
O           1.88298548575842   -0.33807516034974   -1.41707717427580
H           2.00298201410652   -0.03449364718718    0.12235628063282
H           2.23245506868778    2.59470485918051   -1.89767044949593
O           1.96315668762838    0.28378897789504    1.06899875216519
H           2.75065349964114    0.81567739453585    1.19129848876140
O          -0.22672787477845   -1.97128233811950   -0.86980213502254
H           0.53966034863342   -1.47808509177034   -1.20587791322561
O          -1.90753502526832   -0.37037117018556    2.09073432185150
H          -2.18150572784634   -0.37051400049558    3.00765954477884
O           0.18093131320558   -1.83822331772089    1.73512749591134
H           0.95976853761187   -1.26815267053243    1.73579858766494
H          -1.12771584290518   -1.00688691468423    2.02430819056900
H           0.04076026460659   -2.06638487659039    0.78038703660378
O          -2.70681529007541   -0.69136276220274   -0.55301952954420
H          -1.00240506458026   -1.41122782952606   -1.03958846844828
H          -3.28576126836191   -1.40988702299972   -0.81045494003127
H          -2.64804187928979   -0.70674800453721    0.41345271436583
N          -0.45550960055142    1.32064048840734    0.49934657936470
H          -0.60016387980463    2.31985299541409    0.59576477836334
H          -0.47513599020985    1.06680177799464   -0.55418513481175
H           0.49920136930803    1.04525683428315    0.83435246371832
H          -1.16680155098661    0.78498920714514    1.03382685832085
