    26
        -50.45316422  Gyration_radius:  2.76360571088 Dipole_moment: 6.489
 S           2.54116742537420    0.90544899724865   -1.38419833690072
O           2.86544965814749    0.33130089306800   -0.07712393999231
O           3.56107716036635    0.77895563597480   -2.37200518188734
O           2.40074498024714    2.49979326341186   -1.10439930692654
O           1.19275256028463    0.51416133461901   -1.79119189538150
H           0.22039247725279    1.56841587177488   -1.00972096885858
H           3.24983308990478    2.80366450991178   -1.40724410892545
O          -1.88975931937538   -0.70614039753506    2.21111841435836
H          -2.61632023640310   -0.81036172947026    2.82612200159016
O          -0.53386461043325   -1.40444076296435   -1.05058758150868
H           0.10226839326910   -0.89245056659868   -1.58244683292826
O          -0.28429074368545    2.10076789591455   -0.34483520809457
H           0.16064838409316    2.95016329520585   -0.33091970172506
O          -1.28276988186167   -3.04511758842011    0.98778153172846
H          -1.93627563383605   -3.69563073040360    0.72688350773125
H          -0.92914868961634   -2.66990643353923    0.16183204668998
H          -1.69501768150113   -1.60007958327190    1.85746130345257
O          -2.44598995875339    0.31209386916957   -0.33323961805752
H          -2.37973317634436    0.08541630053726    0.61025033924616
H          -1.94672519339909    1.13214973745736   -0.44385025498699
H          -1.34607575669995   -0.84559085472331   -1.00900306444181
N           0.59661384856494   -0.07109103157332    1.01139208427318
H           0.12981407307470    0.83928831348678    0.84316173458604
H           0.15354879089997   -0.75872176635569    0.35318192641216
H           1.61895480824566    0.04849926028364    0.67584229985191
H           0.49270521229477   -0.37058771329977    1.97573879059810
