    26
        -50.45490173  Gyration_radius:  2.54719619806 Dipole_moment: 5.613
 S           1.07309693095984    1.97034894463042    0.73950643025444
O           0.96629918049949    2.79809369606610   -0.43407711748866
O           2.28018493030005    1.13222861642928    0.74478752578120
O          -0.09848377380949    1.17525139924966    1.04099624796404
O           1.25150754053124    2.97776199623796    1.96467078570205
H           1.62168145397835    3.74356322226901    1.53683626115706
H          -0.51165184574496   -0.20661571791929    1.68879875672898
O          -0.61663535440431   -1.12779318296860    2.05210745103918
H          -1.02667385788343   -1.02598720394688    2.91176320850863
O           0.50230473646000   -1.40291791211053   -1.72545385929474
H           0.89965751690154   -1.60610755302024   -2.57292041617397
O          -2.85810567499652    0.48133130436638   -1.13110281918875
H          -3.44448943496673    0.31542825781764   -1.87070104680017
O          -0.31618397723827    1.00313035205277   -1.94389170494321
H           0.14518690481845    1.69811117439323   -1.43751636858677
H           0.19365672489261   -0.43372838861768   -1.79835858476358
H          -1.23516300272522    0.98492263568945   -1.60080181849239
O          -1.89502005188034   -1.91312238821586   -0.31171686866954
H          -1.56360386595064   -1.71743182465919    0.57838992857579
H          -2.62185068378056   -0.39815478958282   -0.76411556886208
H          -1.11843147945848   -1.89526651658556   -0.88897651522519
N           1.69021286644791   -1.34342607810772    0.65356849374178
H           1.30118223042922   -1.46397175903254   -0.31683647891561
H           1.99232441245143   -0.29532490503819    0.72403713907242
H           0.91927663595491   -1.48375123724180    1.33019319033627
H           2.46972093821739   -1.96657214214685    0.83081375854160
