    26
        -50.45316401  Gyration_radius:  2.76364352531 Dipole_moment: 6.485
 S          -0.07132761061264    0.32382459709535   -3.01384763013372
O          -0.70648287792123    0.69833144773428   -4.23376926931547
O           0.79736872901404    1.34474821240120   -2.42516452087358
O           0.93434067866547   -0.89186135768744   -3.40142277665798
O          -0.93238900428559   -0.26402209010316   -1.98911046075698
H           0.01503374649526   -1.38280896058905   -1.26993558557773
H           1.04167194530205   -0.73684055179471   -4.33389202280213
O           0.71369167024047   -1.87343065511907   -0.76849310026863
H           1.26396548822701   -2.26705278935838   -1.44811082541744
O           1.01356555006800    0.14181596024007    2.81336319519320
H           1.29247398879966   -0.00427937938596    3.71774897401686
O          -1.71080982735317    0.45277219550501    0.47882841336084
H          -1.73688519116304    0.25895424753027   -0.47587932542168
O          -0.70821138705810   -1.72689245093414    1.64583049197756
H          -0.26236232236894   -2.10522993194451    0.87636166583393
H          -0.02724906806339   -1.22867984557619    2.12950253940740
H          -1.58905116309146   -0.42254777570199    0.91773958413277
O          -1.03748717122435    1.90635455312119    2.67946846446920
H          -1.44557473151207    1.56666307616509    1.86340090284140
H          -1.74219482316704    1.96232360396980    3.32655177018723
H           0.31484297778740    0.82930288812697    2.84595120624360
N           0.94451000239334    0.70145781401457    0.03636222166577
H           0.97466754188548    1.08585581931420   -0.97527473954044
H           1.56462586336104    1.16631131982567    0.69197250258247
H          -0.05588511331932    0.77624380108093    0.34604690001078
H           1.15515211872220   -0.31131372801135   -0.03422855514891
