    26
        -50.45316412  Gyration_radius:  2.76391759336 Dipole_moment: 6.490
 S           1.98494226569489   -1.15103516051261    1.98276651242064
O           2.13780418495745    0.30338433095533    1.91578065878592
O           2.33100084019662   -1.74042904637557    3.23367303741805
O           3.06920559287505   -1.72348837776551    0.91655543649513
O           0.70221917115498   -1.55491321970658    1.40942521528883
H           0.97919925797100   -1.59072225103891   -0.19964434767474
H           3.77280892050133   -1.97672376368524    1.50468382388041
O          -1.60167575464838   -0.29987155577446    0.83844545839097
H          -0.95405676288321   -0.88642520980428    1.27007886644265
O           1.17940001849657   -1.38095131712237   -1.14631608303385
H           2.07253339099144   -1.70386655512911   -1.27924474848777
O          -1.19481214866666    1.88015742823487   -1.99833029052523
H          -1.59672264601277    2.32120350839454   -2.74729756032897
O          -1.51363694426145   -0.88831429115665   -1.76241632140937
H          -0.63708201500106   -1.29461661844108   -1.78473360051019
H          -1.74962990478538   -0.69030022659028   -0.05561119958717
H          -1.38452818767115    0.03791020267684   -2.02952107517310
O          -2.73141601754255    2.09819982353027    0.22107672508122
H          -1.77745526883323    2.05397203313915   -1.22854372600134
H          -3.68913078797360    2.06750571792910    0.20731472077323
H          -2.44053703813413    1.27911003618706    0.65978388748120
N           0.61143831386692    1.00565021301103   -0.00047161146036
H           0.57998065695278    1.95326936424354   -0.36308434492762
H           1.29610939933652    0.85186493970833    0.82373550896540
H          -0.33246686018874    0.70309987173791    0.34589661713077
H           0.88650829358744    0.32633012335326   -0.73400155943897
