    26
        -50.45316399  Gyration_radius:  2.76313584706 Dipole_moment: 6.488
 S           1.82200047083214    1.27881225808614    2.05738316871397
O           2.40774997537057    1.36422142489776    3.35419234351334
O           2.62261679744930    0.56979280706528    1.05752953133344
O           1.74935688004376    2.80716806329812    1.51077301785679
O           0.43030754109084    0.83455487061873    2.00342827633199
H          -0.21556690927422    1.69742613792452    0.77617113151629
H           2.41438061529924    3.21660849485194    2.05402802975089
O          -0.84343310958898   -1.29807781395378    0.98311211050774
H          -0.46375679917753   -0.67168018585070    1.62589506098036
O          -0.92090650864014   -1.13316407842832   -2.61340612676518
H          -1.36753453144041   -1.37477327682425   -3.42530835925188
O          -0.45369252821819    2.09751229343952   -0.09757022485636
H          -0.05779954785289    2.97071250729186   -0.07660107815370
O          -0.72938665839940   -3.23960835752904   -0.92069743303368
H          -0.72099177963601   -2.73459534551716   -0.08825541320096
H          -1.40652942961303   -3.91002132934696   -0.81921875272734
H          -0.84083543557333   -1.95569041950174   -2.08524995951672
O          -2.40606968169083    0.15060443946194   -0.62212184197465
H          -1.59920160084131   -0.81775861385877    0.56851486335637
H          -2.00802701946617    1.01653609193305   -0.46214961385916
H          -1.98973608346497   -0.18802514186197   -1.43323749312908
N           0.92871737803888   -0.14974334197170   -0.70520299672164
H           0.40609986804257    0.73358240233831   -0.85306789597280
H           1.19680070099617   -0.57615667851961   -1.58654858785872
H           1.75100727757204    0.09411118424176   -0.04457253734398
H           0.29443012815574   -0.78234840230065   -0.15781921948632
