    26
        -50.45192346  Gyration_radius:  2.54513858879 Dipole_moment: 8.316
 S           0.42937401830565    0.03686840001688    2.58141924109366
O           0.51541565757987   -0.21318279373147    3.98119410061563
O           0.73438040187769   -1.08588404890955    1.70319459581462
O           1.63244476627583    1.10277186358361    2.26818597794076
O          -0.76846118497870    0.73891447297200    2.12859072963226
H          -0.43185447562683    1.71774897071497    0.94324081239784
H           2.00986446223927    1.19985220450020    3.13649567819843
O          -0.07329158856751    2.24508322276492    0.17357515498811
H           0.29218015588133    3.04200061176390    0.56006600439729
O          -1.92036069007249   -0.94812369728628    0.32759062403292
H          -1.60570130478386   -0.42405773582948    1.08252785993236
O           0.10989208388116   -0.49817424203892   -2.80823368609156
H           0.20413642575510   -0.22675375020676   -3.72106920044531
O          -0.15642434115446   -2.64052763632707   -1.05548953372338
H          -0.14219227608348   -2.07007498667311   -1.83782361148682
H          -1.22358103107151   -1.59993528381498    0.14366527770067
H          -0.75432924937990   -3.36415751286428   -1.24655284234667
O          -1.76229876641155    0.82051487046691   -1.62585013891827
H          -1.99752720663282    0.15340467812918   -0.93093087716630
H          -1.36102953027659    1.54885165839521   -1.13583576391777
H          -0.67301265269258    0.01722393125312   -2.43511158220155
N           1.40520310024577    0.08789184405501   -0.46765832215050
H           1.04669013829460   -0.28919761254311   -1.36648369060121
H           2.41625296077355    0.16725438933534   -0.48061700383498
H           0.95767661946751    1.01885061025072   -0.28751258261923
H           1.11655352721441   -0.53716240782654    0.36942277878251
