    26
        -50.46147005  Gyration_radius:  2.59070774404 Dipole_moment: 4.223
 S           0.33390342604481    0.66669906622065    0.08883984112212
O           0.40608134779598    0.21274638405835   -1.41538837217298
O          -0.39038062972155   -0.38067628828157    0.79576829398967
O           1.67490624824330    0.88113293159609    0.57608620065994
O          -0.47805570808442    1.89492082774527    0.04230259454978
O           2.94492533104964   -2.67062996556900   -0.24368228586372
H           3.77323236812188   -3.06711206150469    0.03040546663088
O          -2.59983169449965    1.83391656930692    1.71136315949586
H          -2.30662078436182    1.78494163853434    2.62245134599002
H          -1.79245810201023    1.96821361330379    1.17584831448317
O           2.88711754924461   -0.31392262389910   -1.50588918962305
H           2.93564727944184    0.24644754990479   -0.71627333117858
H           2.96327186370458   -1.24095632182406   -1.17936610521302
H           1.37064708506385   -0.04421199174228   -1.58623843655621
O           1.82793075300357   -1.47125009457735    1.85764564680820
H           2.51165011155602   -2.34029736722350    0.58018928201817
H           2.07273993335767   -0.55888663216375    1.63157867218178
H           0.87405739934471   -1.47055034507653    1.68824842015182
O          -2.97287695900222   -0.44408024553176    0.33435444448817
H          -2.03575660822573   -0.65899882514509    0.55434919828204
H          -3.17303325417725    0.29014123345697    0.95045523382821
H          -2.67492669364092    0.31963690355224   -0.91295419260607
N          -2.19044654283373    0.98800556362439   -1.64226248487985
H          -2.84420786055492    1.59683520076780   -2.12389634361263
H          -1.62100547276188    0.44667283728169   -2.29100494150136
H          -1.49651038610432    1.53126240317595   -1.02293044147467
