    26
        -50.46365765  Gyration_radius:  2.44724098509 Dipole_moment: 8.565
 S          -0.24582190160321   -2.08549796873358    1.22919172462534
O          -0.12634055797715   -3.47821564798334    1.50569735334290
O           1.00542794878981   -1.33715955807001    1.24849007790382
O          -1.12755480678393   -1.46995154549117    2.42934598467788
O          -1.02310789247435   -1.74258617481157    0.03480957237361
H          -1.66419473289729   -0.35730267233190    0.37396894503453
H          -0.96139460256473   -2.13416659839532    3.08773076700518
O           1.51264512365055    2.16399812526797   -0.40805889748738
H           2.01540238064272    2.95082676129850   -0.19768642891827
O           0.05053255673585   -1.01798024145699   -2.27344599932735
H          -0.40124611958513   -1.47920738425019   -1.53452269622042
O          -2.02159792668799    0.56277883353649    0.53006663221042
H          -2.80623046419551    0.44280441709252    1.06609255452978
O           2.27949676367632   -0.53859828258709   -0.97878086662538
H           2.26687397568619    0.41792718225036   -0.83617591725923
H           1.96102474144626   -0.92933660282414   -0.14136939901440
H           0.99333255439109   -0.95085165538474   -1.96821272639607
O           0.41394239167393    1.16927545096166    1.70681342787290
H           1.14839503495849    1.81660533885694    0.46458788774052
H          -0.53378818135769    1.11925753507796    1.50489747242177
H           0.71656939143282    0.23328504459389    1.66470520977453
N          -0.70582505660992    1.36071739210579   -1.71528176585536
H          -0.40633986253059    0.34065814934930   -2.05396265436386
H           0.15096493749997    1.81864790260607   -1.33958084194019
H          -1.12055279383597    1.90142130515674   -2.46505274571304
H          -1.37061288148203    1.22265092416418   -0.93426670039349
