    26
        -50.46365737  Gyration_radius:  2.44733448495 Dipole_moment: 8.569
 S           1.21808058716075    2.10635172937024    0.02977996106604
O           1.44080988818870    3.50165132268150    0.21385727002815
O           0.98889448364503    1.34546923500962    1.25228731853873
O           2.58562227382256    1.51811444096537   -0.58721538852929
O           0.21741541604191    1.75366429024793   -0.98154141277735
H           0.70573034777585    0.37968087635985   -1.54713097859462
H           3.18266324566449    2.19383909756666   -0.28855756868974
O           0.94798087656285   -0.53429459493251   -1.87035544792989
H           1.63274367218254   -0.39865642797736   -2.52621713704940
O          -0.67696912755029   -2.18570446931721    1.37885550465436
H          -0.56206270960899   -2.97600722880376    1.90640968628550
O          -2.25020513033019    0.98347522721189   -0.41576782827602
H          -1.44072708741139    1.45968512461293   -0.70046784735077
O           1.60304258616340   -1.14743067224199    0.75316939635686
H           1.60267694834390   -1.09128124402211   -0.21544243113975
H           1.48282540084763   -0.21512886658380    1.04640255846769
H           0.24637908948002   -1.82075867820393    1.20718804532335
O          -1.44063252086770    0.49931281982571    2.03092167554025
H          -1.28232280775863   -0.45477742361340    2.04101883577106
H          -0.56217010381425    0.90611276023830    1.89665302218673
H          -2.14728214752737    0.91113410075860    0.56933474543708
N          -1.50816591132573   -1.37881920347110   -1.05676722697325
H          -1.91851698547740   -0.36716385527890   -0.82680630777207
H          -1.31099655728309   -1.84009516070879   -0.14385060932620
H          -2.14636850131061   -1.92618846403335   -1.62208660794977
H          -0.60844521561475   -1.22218473565960   -1.54367125729795
