    26
        -50.46365769  Gyration_radius:  2.44724087238 Dipole_moment: 8.566
 S          -0.27828732664885    1.52344332131484    1.87696465214409
O           0.38032037242754    0.23276601244981    2.03961828716121
O           0.07546090189348    2.51268635933252    2.83958947587712
O          -1.84731449597728    1.23072422654884    2.09887461588459
O          -0.21419030435767    1.95232608783558    0.47685683803559
H          -1.32153816712793    1.11062138044094   -0.23741768717894
H          -1.92301840441096    1.51787766470350    3.00114452433842
O           1.75349643988257    1.32191455773438   -1.17730166334873
H           1.11729352348845    1.76711730812077   -0.57735502532510
O          -1.96512550863799    0.53017990492642   -0.73497968973253
H          -2.82466500769245    0.93074898997442   -0.60037275249610
O           0.66537500683190   -2.47155771994148   -0.76528291697956
H           0.65228044072177   -3.42818459682369   -0.79346324829544
O          -1.11657141876666   -1.56506277585448    0.86934245851239
H          -0.57769235419410   -0.96856514285477    1.43792340614309
H          -1.66261278070343   -0.95898764557684    0.34395555242197
H          -0.02517008251794   -2.19680080545979   -0.08519682589021
O           2.42012786439117   -0.58589691878484    0.49310179789354
H           2.02301968650441   -1.38115272275314    0.11195703655167
H           2.22708733371205    0.68064043540001   -0.58489409244551
H           1.79785060758689   -0.29332491688396    1.18773242556521
N           0.11603533409371   -0.30635748497251   -2.27703446740293
H          -0.80159670484363   -0.01399245367757   -1.89822893978080
H           0.86129281661723    0.42867300339918   -1.89075844502906
H           0.36133416042848   -1.23111071404971   -1.86513859970580
H           0.10680806729793   -0.33872535454822   -3.28963672691743
