    26
        -50.46365765  Gyration_radius:  2.44726178673 Dipole_moment: 8.566
 S           1.07783704150082    1.87677471206942    1.11231602933549
O           1.09021555011465    0.54083096603085    1.69640071057599
O           2.13619249103419    2.73396519417107    1.53131076537366
O          -0.28162807189838    2.56000803954019    1.64325515910348
O           0.86608538152990    1.79490824370140   -0.33569052277682
H          -0.66797734256683    1.53312626538123   -0.48844675562104
H           0.08272080913910    3.07933790422524    2.35023627259373
O          -1.62798052500946    1.28605871193275   -0.61496061127682
H          -2.11365634859124    2.10832525277351   -0.54131978899395
O           1.66593118644557   -0.23194666639309   -1.83830627083599
H           1.53835317911858    0.63260842506496   -1.39208033515713
O          -0.82260361550034   -2.53163367129810    0.22597769112574
H          -1.27634171984832   -3.29051883654703    0.59253627223284
O           1.90000102231313   -1.64441904144984    0.35808415130712
H           1.96137455810713   -0.83396957204602   -1.10565104974242
H           1.74553871721756   -0.88223720783582    0.95018158657204
H           1.08473219395640   -2.16372332622887    0.39111688488115
O          -1.35020642284733   -0.39269639062721    1.57348532208738
H          -1.69986834324029    0.23950032564237    0.92579644227007
H          -1.04657973046234   -1.75050202211235    0.82140097276369
H          -0.44630036341440   -0.05615353075346    1.77145108020060
N          -0.79088632258170   -0.93480376660982   -1.94768092239862
H          -1.29362461434164   -0.09936665032593   -1.60081922485516
H          -1.14585893483175   -1.23497903349955   -2.84789872493441
H           0.28701645590882   -0.65126689799229   -1.99865124174778
H          -0.87248623125607   -1.68722742681124   -1.23204388207899
