    26
        -50.46365695  Gyration_radius:  2.44739874305 Dipole_moment: 8.571
 S           1.78135466966466    1.58997188919938   -0.46822598186121
O           2.58091548908658    2.76006027811905   -0.31963212135355
O           1.89697880398745    0.61517609580854    0.60979800337795
O           2.33619083148982    0.83941324228346   -1.78174344027940
O           0.37058960754733    1.82523492578515   -0.78923703510796
H          -0.04498151066751    0.58210730604925   -1.64244512840035
H           3.20734824916641    1.21705491893377   -1.80854809552196
O          -0.36152512437895   -0.23610351300804   -2.12076751715671
H          -0.09141101323995   -0.11840502575723   -3.03209613132114
O          -1.59355178641095    1.64538267965940    0.97536974357418
H          -0.91086975354881    1.93697282454216    0.33343671573757
O          -0.70602755689457   -2.20512167676342    1.33417927094400
H          -0.66411990255154   -3.11030367074674    1.64234549168067
O           0.03734378210852    0.29601318546174    2.52348954161285
H          -1.06530237180667    1.27711246244857    1.73144682134268
H          -0.19914613357413   -0.62818700065478    2.36469247935861
H           0.81997163619188    0.46309713188840    1.96238732850461
O           1.18486402666578   -1.71007662651939   -0.35336946945720
H           0.73907031511259   -1.38950418340962   -1.15331438353662
H           1.58920903813322   -0.90060896417070    0.03486847553444
H           0.07794256685617   -2.07850894772453    0.71406325419288
N          -2.22557495373687   -0.55580855978650   -0.16372673772642
H          -1.80676688928665   -1.28808083393093    0.44744371736917
H          -3.21096229662938   -0.72468864928934   -0.32807308284857
H          -2.04933263989722    0.42487413455245    0.33790833329171
H          -1.69220709338781   -0.52707344296867   -1.05025003195160
