    26
        -50.45447834  Gyration_radius:  2.5444321348 Dipole_moment: 4.582
 S           1.85502806566147   -0.11006208747520   -1.62046439348328
O           1.86940754826668   -1.09706224174295   -0.52240389610726
O           2.55122528080972    1.08867204810400   -1.24803564577273
O           0.49614962301775    0.11676028614775   -2.08368799201200
O           2.63045504324856   -0.78769895212086   -2.82724879543231
H           2.01526879932089   -1.42544926900113   -3.18193853206791
H           0.06577248807767    1.35519865603995   -1.16891792837140
O          -0.83731117612995   -0.39493742983420    2.45970979951000
H          -1.25905252397225   -0.41259039091135    3.31900814265143
O           0.03371116057393    2.09731084048480   -0.50396665671510
H           0.60509943398488    2.77146542613043   -0.88004764142196
O          -2.72570569740012   -0.91551564263834   -0.88319714051302
H          -3.41140428064633   -1.58065391345907   -0.81216333391076
O          -0.54964153441660   -2.11645974974465    0.13434899947836
H           0.31776767159223   -1.83515042873318   -0.20868196164272
H          -0.61081450926329   -1.75472727879068    1.02793163323314
H          -1.87850913315046   -1.37389038275901   -0.68503345915594
O          -2.22754489881945    1.05953657008215    0.83857407700209
H          -1.60355175026346    1.61539892801138    0.35330039801566
H          -2.54350509701019    0.40551673746584    0.17477592688893
H          -1.43334621520360    0.15998471431657    1.86298240326525
N           1.34124105337658    0.63724502741979    1.32507917153919
H           2.12606305829612    1.04703016192605    1.81947096021808
H           0.61080881674154    0.24305617392035    1.96275857828046
H           0.88380532350488    1.34121982248790    0.68282545004514
H           1.67858343995161   -0.13419763537606    0.66502183652037
