    26
        -50.46422815  Gyration_radius:  2.57432738321 Dipole_moment: 3.116
 S           1.24422465514405    1.82785919772447    0.67465900667116
O           0.19771821605536    2.57890641641672    1.33040897530915
O           0.77368619637006    1.12845244072678   -0.52439599779934
O           1.95747782548896    0.91148874986329    1.54237579923006
O           2.28375340554202    2.91594975749974    0.16975085150741
H           1.85407605673488    3.71284272768112    0.46303623935775
H           1.37775097148155   -0.49516326653337    2.01447831667775
O           0.90401222722136   -1.33244720109496    2.26307851892232
H           1.29695268195184   -1.61800394797009    3.08886731307391
O           0.34399787996985   -1.80680728738445   -2.96361886571189
H           1.08894935780694   -1.59063476128882   -3.52544396455598
O          -2.43685377054410   -0.57652375467250   -0.17816284791222
H          -3.31530294053217   -0.88195307392109    0.04984924868359
O          -1.03624511890021    0.43530923441159   -2.46560660363814
H          -0.38278720718139    0.90220958761310   -1.91997070557525
H          -0.22979659202198   -1.00213583043451   -2.95232014710954
H          -1.74574673500495    0.19908671171071   -1.85285115846513
O          -1.29079468452096    0.46911231175335    1.92453255959010
H          -0.82030590435695    1.31273990840421    1.76381067251214
H          -2.10355198366518   -0.06806689494864    0.60965327678190
H          -0.62343136350979   -0.16474996851269    2.22444213640332
N           0.14350995095241   -1.40931905758850   -0.33963104002735
H           0.40390186693729   -1.85782218714452   -1.24153921140445
H           0.52672062741096   -1.83522273426862    0.51056403200715
H           0.47979202537700   -0.40144995137379   -0.38131119459157
H          -0.89170763413414   -1.35365713663698   -0.28465520996273
