    26
        -50.47071367  Gyration_radius:  2.41583743624 Dipole_moment: 4.146
 S          -0.67813133851359   -0.68072751528978   -1.78516335615531
O           0.08836316509540    0.52075910233092   -2.01155413456620
O          -1.88359483204049   -0.47993901775075   -0.99849267144887
O           0.14616122158796   -1.75954539301113   -1.23630149812580
O          -1.16370448233419   -1.17481568579501   -3.20890201739375
H          -1.83089633859880   -1.81470234753084   -2.98573630161990
H           1.66704652526737   -1.14117244856324   -1.10413584482826
O           2.43211014771251   -0.52189891881834   -1.05779368592880
H           2.24609233723435    0.09892602126589   -1.77127980036160
O           0.22745503336432    2.56188480780557   -0.30613545240393
H           0.16555043344086    1.98923086798265   -1.09734756102914
O          -0.13135163104773   -0.30601446859790    2.50543803870715
H          -0.15061623950416   -0.60648260761314    3.41462585075018
O          -1.18350618326034   -2.12938917030775    0.98317576939683
H          -0.51149775403981   -1.05459924802523    1.95792723901226
H          -1.88615469526878   -1.62568265744448    0.54487340937561
H          -0.53900820492171   -2.23816033928922    0.25489322417180
O          -1.81192962625729    1.41602832349870    0.92276440567030
H          -1.97038556551302    0.78376664157972    0.19558313265611
H          -1.38595990272959    0.90920733944439    1.62677659490325
H          -0.62106905980771    2.39352504187965    0.16847503554486
N           1.77556395576459    0.97094140600410    1.02250645485696
H           1.18331223419283    1.73384324753522    0.51391677608283
H           1.14170167506753    0.45368084106778    1.66172928066898
H           2.12573240287531    0.31971033126549    0.25659875588819
H           2.54871672223676    1.38162587637537    1.53355836617563
