    26
        -50.46365699  Gyration_radius:  2.44742337297 Dipole_moment: 8.569
 S           0.61892358185579    1.99596909388884   -1.24642273727970
O           0.85875123156886    2.82334355335285   -2.38151202583413
O          -0.77763398328150    1.64876752710645   -1.01233650508789
O           1.06187068791766    2.86532467923910    0.03594066839732
O           1.46163562274438    0.80077257281966   -1.14653639288944
H           1.60546790496851    0.55518612717229    0.39113389952012
H           0.99397728795090    3.73266614881706   -0.34524909981037
O           1.64970955665087    0.32588642770921    1.36278230488924
H           2.33449633604674    0.88853835778662    1.72593572723461
O           0.63910883224797   -1.63833607680542   -1.76184602052847
H           1.06851417985709   -0.75667259507157   -1.72555601608522
O          -1.97710923365099   -1.33370521226066    1.20564031241421
H          -2.71212456064160   -1.49120350156851    1.79806415379399
O          -1.02317101287453    1.04532812067397    1.52109653696972
H          -1.03059976450772    1.38497359969606    0.59694290006333
H          -1.68547060209495   -0.38181264812820    1.36002788994855
H          -0.08133037492164    0.92139364158729    1.71826326530124
O          -1.82484608578529   -0.75566658443586   -1.59884616763784
H          -1.55753175433266    0.18023402360292   -1.51002866807821
H          -0.32122725018758   -1.42793388353764   -1.90267484074362
H          -2.11269907511658   -1.02482232143550   -0.71564360608286
N           0.56989453929714   -2.09683146683249    0.75353689213394
H           0.93505278177086   -2.98693717243851    1.07117007381691
H           0.64007283096090   -1.98966090579488   -0.35464633004272
H          -0.43406583969496   -1.98101327327136    1.00598035549433
H           1.10033417324850   -1.30378822186509    1.15478341011874
