    26
        -50.47071375  Gyration_radius:  2.41582752957 Dipole_moment: 4.144
 S          -1.40688049361081    0.72966422694167    1.26454543915801
O          -0.33358154555037    1.70813820316727    1.32071013518574
O          -1.02850185583303   -0.59022468226787    1.70839982411075
O          -2.03819243429235    0.70179885120896   -0.05657374355531
O          -2.51453619727650    1.23920004405080    2.27443264818976
H          -2.55723568838414    2.16873262474472    2.07764788607898
H          -2.06535016540714   -0.88160049061887   -0.50890816764173
O           1.51559354966014    0.56601678304669   -1.94267336228203
H           1.93177319752366    0.85270775449744   -2.75626314062583
O          -1.88905178056144   -1.84947800074930   -0.56457760441069
H          -1.89127498027619   -2.11915133724178    0.36080171468447
O           1.40880836011934   -1.62965009787595    1.43816617389106
H           0.52423772666826   -1.35531815010751    1.75448123041393
O          -0.34250591017134    2.26095435042250   -1.29196982079320
H          -1.12348368970988    1.70355542208497   -1.10027871911724
H          -0.06176161834299    2.51237408582839   -0.39880783429139
H           0.78672412021883    1.22822293349043   -1.75562498842643
O           2.17534647779028    0.82891296462066    0.84798249849976
H           2.16382024480397    0.83566880131515   -0.11835792285972
H           1.32744380597557    1.22361703787004    1.12892019071455
H           1.90682694342301   -0.77988151353621    1.37758755369429
N           0.71111621964127   -1.88433021801304   -1.03983599187647
H          -0.35056763749898   -1.90542045798637   -0.96512956107941
H           1.01480703783920   -1.00212495907830   -1.49519429260051
H           1.07958213565379   -1.87138986405845   -0.01230404653618
H           1.05684418759970   -2.69099430175366   -1.54717608852284
