    26
        -50.45539154  Gyration_radius:  2.44941648012 Dipole_moment: 7.289
 S           0.42950104353489   -0.00640774454410   -2.37683940700845
O           0.57190807533713   -0.91677893802710   -3.46768656727557
O           1.54168255475796   -0.03838648308779   -1.41147403702177
O          -0.78377720379426   -0.59586602243970   -1.47794889422384
O           0.04495250579289    1.34763601297554   -2.70916803172995
H          -0.66681263214132    1.89648489396655   -1.41525658102291
H          -1.33410748668192   -1.04829528331537   -2.10784483875385
O           0.95568356324630    0.27706742951173    2.34922142612084
H           1.45530586980404    0.52688365449045    3.12668769659160
O          -1.57095473858400   -2.28566811195374    0.65500450846692
H          -1.94686658646390   -2.70961286276026    1.42833776119266
O          -1.06331519550614    2.24608608786419   -0.57154388802632
H          -1.62931673014178    2.97558407600506   -0.82780258262652
O          -1.70687587520258    0.27677484254525    1.28396863875347
H          -1.76352145041437   -1.31757111836657    0.75415236018385
H          -0.89953916680591    0.34820261583746    1.81144170252020
H          -1.58793305374940    0.90006645749797    0.54664897596683
O           1.44942612002097    1.90163906182320    0.41624717252791
H           1.17730639522464    0.96380799166702    1.64017506755864
H           1.63905836206857    1.28446339428408   -0.32112272590979
H           0.58413317183884    2.28119894913941    0.18420511275987
N           1.03244264398618   -1.68835859972441    0.50483097113946
H           0.03576130900239   -2.02631090209785    0.44529483221394
H           1.10478905649393   -1.06529139366609    1.33930529167285
H           1.68869323773462   -2.45989801530321    0.55030887247785
H           1.24237621078805   -1.06745001221964   -0.34914285655678
