    26
        -50.47071359  Gyration_radius:  2.41576634046 Dipole_moment: 4.139
 S          -0.27987585181022    1.97692827058901   -0.34932613085481
O          -0.52084189562765    1.71836482829581    1.04971426413178
O          -1.21562256032147    1.32103265960288   -1.24713886346750
O           1.10797288933192    1.69834982685383   -0.72523600945695
O          -0.49163086599342    3.53204166640599   -0.55833270146590
H          -0.54506853841090    3.60483614749144   -1.50514370191710
H           1.85545464238025    1.19606238355301    0.65363065462850
O          -1.54279597107111   -0.54715555759610    2.00775083446522
H          -1.31178693396615    0.38568566547709    1.82283200481223
O           0.40827077894377   -2.24570608815610   -1.08569564202398
H           0.69787729113131   -3.00511212978942   -1.59241691360587
O           2.02793325909678    0.86477511749834    1.56549991035089
H           1.39620984695275    1.36377294802054    2.09554245175951
O           0.62871028408844   -0.11075245192025   -2.54918790290352
H           0.54775810164829   -1.44824246785108   -1.67670411672809
H          -0.27945477484054    0.22683651381824   -2.52857729076270
H           1.08882517917342    0.53141177361594   -1.97119150829904
O          -2.16408703383970   -1.09440085253387   -0.50133090832060
H          -1.42778088650618   -1.64869629465012   -0.79232550636088
H          -2.00763243120832   -0.83755383188398    1.18720935645893
H          -1.95851958671939   -0.19129172051683   -0.81082574397148
N           0.81624880453666   -1.48378359710865    1.50704228470606
H           0.75971162748393   -1.84541038375505    0.53561545906631
H           1.40960866878738   -0.60018758425713    1.52947779093900
H          -0.18711523435414   -1.17365378545179    1.80472696481639
H           1.18763120111155   -2.18815104573958    2.13439094400632
