    26
        -50.47071364  Gyration_radius:  2.41580169226 Dipole_moment: 4.142
 S          -1.00561366343419   -0.82797944531573    1.55343609300679
O          -0.52670946238136   -1.96833820200782    0.79037498948889
O          -1.90819894214788    0.03318910251188    0.82809343040910
O           0.10262024018837   -0.07931981669260    2.15033551253549
O          -1.83568520373836   -1.42841601351182    2.76060045098960
H          -1.27839892168789   -2.14006060114110    3.05638945118059
H          -0.14798249435420    1.49723187586995    1.74302906159180
O          -0.47891059772827    2.31716299221224    1.30826061117437
H          -1.42594032753012    2.15228070314526    1.23706614967520
O           2.16608550265775   -0.03009877337012   -1.30197248271161
H           3.06820136810094   -0.03109338740933   -1.62363925324704
O          -1.80659491959538    0.44522768476128   -1.80142236767369
H          -2.08288365126964    0.29067757044696   -0.87538330357537
O          -0.16490514430253   -1.62413573201933   -1.86281735843407
H          -0.35567685666761   -1.87694243838761   -0.93901650521720
H          -1.34120121078246   -0.38959620851543   -2.04668826629275
H           0.70829271617934   -1.21020876578761   -1.84991959623958
O           2.06241342981943   -1.32265873637654    0.94904304806697
H           1.56025853457015   -0.73007901187626    1.54455963927458
H           1.39973269479694   -2.00040157720476    0.74717769699361
H           2.18568630040811   -0.50499343464305   -0.41941653269977
N           0.24170403831343    1.90730902863454   -1.20180625913781
H          -0.63662415504799    1.36191680197852   -1.55204233648388
H           0.40617881856253    2.73993410253218   -1.75614693648148
H           0.04027853863747    2.15688827166730   -0.18672653546239
H           1.05387334843771    1.26250400050085   -1.25136840073092
