    26
        -50.47071337  Gyration_radius:  2.41582690469 Dipole_moment: 4.148
 S          -1.58966519597311    0.81914074248220   -0.95502684050553
O          -2.14893496052779   -0.31932733162489   -0.24589789392786
O          -0.59133144741263    0.47314500721720   -1.93785777977094
O          -1.10999919732542    1.84520077174759   -0.02646257107237
O          -2.79240224440516    1.47116970497457   -1.75202883991762
H          -3.48861172112776    1.47260257596376   -1.10421744438012
H           0.42418771306296    2.20539693441090   -0.50663922772709
O           1.30868744378306    2.17084873153408   -0.93942004630907
H           1.09423732709795    1.89998360985748   -1.83930599722333
O           0.85528280630663   -0.84893778891851    2.22194836563644
H           1.11448621767185   -1.00333396775718    3.13095112767428
O           1.06437039400780   -1.60335793596290   -1.73352442600841
H           0.44636621031144   -0.90954282742030   -2.04082578123208
O          -0.51112895428632   -2.41266322717693    0.22698374708993
H           0.51463448531205   -2.14861167536990   -1.12178116998249
H          -0.06164753859931   -2.08538927256747    1.01744583600569
H          -1.20342856820688   -1.75548538181850    0.02057275277449
O          -1.37637922209067    0.48028792521100    2.18606167681759
H          -1.21271428697548    1.20848152633212    1.55281315541684
H          -1.93976058015814   -0.10885688436082    1.66216673037871
H           0.01460696055430   -0.30447189795428    2.26183103315734
N           2.26479409936931   -0.10677918705259    0.00195115765831
H           3.27463643536483   -0.17081761546510    0.06300705460852
H           1.82263346481525   -0.34435551964627    0.91081146977769
H           1.96078909047264    0.86645546116330   -0.30389898270615
H           1.86629126896747   -0.79078247780192   -0.74965710623654
