    26
        -50.47071324  Gyration_radius:  2.415806345 Dipole_moment: 4.142
 S          -1.79453781437322   -0.72278129968648   -0.60518048611166
O          -1.79498821484003    0.70996378583584   -0.77746583122158
O          -1.68383703802766   -1.15759494973228    0.77690588753497
O          -0.79409966448583   -1.37482073146883   -1.45329422043934
O          -3.20493225582118   -1.23315657416089   -1.11219533127988
H          -3.23199299986613   -2.12240859375768   -0.77603429440336
H          -0.05984385776404   -0.16395757067291   -2.29620636513119
O           2.18238910538340   -0.58724500631159    1.13169382088392
H           3.01142508290030   -0.95617341683079    1.43810887705516
O           0.25135185389536    0.72223055348327   -2.59375975475535
H          -0.54115362577362    1.26453155893080   -2.50991191132011
O          -0.49102416213075    2.41317082145356    0.80152759329700
H          -1.14262073112512    1.95732044244276    0.23109033447895
O           0.59258546606347   -2.52223245579680    0.44100607174908
H           1.62171177159920   -1.36655465149919    0.84349974846608
H          -0.17549661067795   -2.34830052205213    1.00537529190420
H           0.25507214810616   -2.25325004167609   -0.43772929404437
O          -0.19900172038984    0.36263713840969    2.44197045523773
H          -0.44115591565422    1.83797989591756    1.60177859558666
H          -0.83127482183895   -0.19558491053646    1.94966202882870
H           0.67993470025718    0.02851623755652    2.21874382640052
N           1.58967125561767    1.54713116847313   -0.46861528645549
H           0.77353787572814    2.01571663368311    0.08452107261275
H           1.92722450097620    0.73996862127303    0.09026388729272
H           1.15976845786306    1.20127372591938   -1.37902327995097
H           2.34128721437948    2.20362014080233   -0.64673140621489
