    26
        -50.47071283  Gyration_radius:  2.41577957922 Dipole_moment: 4.142
 S           1.58524572793060    1.25953066187810    0.08906406346784
O           0.39633227904348    2.03696074901798   -0.16500401753319
O           1.92915669548509    0.33014782178088   -0.97356002227392
O           1.53206842253672    0.58892679886487    1.39026328000471
O           2.78327987452712    2.29125258876466    0.17235344232784
H           3.54458922310633    1.72369435545921    0.12025589281457
H           0.09083691606284    1.02194292889225    2.06186870258991
O          -0.70412796063846   -2.42736348492030   -0.04242068150417
H          -0.85573222440340   -3.36317386450954    0.09393143959265
O          -1.68992880325078    1.17021501819987   -1.57577644325548
H          -0.96605885829380    1.69462509958170   -1.17720971340000
O          -0.82622077688910    1.35976474191653    2.18690141725149
H          -0.82473896334933    2.17297567369503    1.66930814205852
O          -0.10497095098614   -0.80047730432697   -2.34154217789467
H          -0.33085207447204   -1.51286133152558   -1.72880812168276
H          -1.21590136272292    0.48483719593493   -2.10414970844177
H           0.69500020619451   -0.37583093884095   -1.97614670834423
O           1.76562528966630   -1.87095201544967    0.54077178634342
H           2.07502809498672   -1.47985575001465   -0.28968880290516
H           1.70302603745139   -1.08262607697488    1.11811001506440
H           0.24530754116911   -2.25760960935085    0.23034651565689
N          -2.18773544098794   -0.21123534094774    0.55421717112140
H          -1.69177857957482   -1.11193419012769    0.41080655370220
H          -2.09713369943566    0.36796101616328   -0.36657462728788
H          -3.15891086107800   -0.36794487492607    0.79896599367309
H          -1.69140576208578    0.35903015177174    1.30371660885333
