    26
        -50.46192213  Gyration_radius:  2.60673132621 Dipole_moment: 2.691
 S           1.08113255488801   -1.98196736779748    1.04355233379010
O           1.42190730962756   -2.23636159736665   -0.34908877273084
O          -0.00195650219865   -2.77671158250919    1.55276209365627
O           0.90522275194055   -0.54129331889110    1.26127300425100
O           2.36304483447826   -2.38565812369526    1.90068356172335
H           2.02120194958755   -3.08632868922819    2.44718241943211
H           1.44315755138045    0.79300959876959    0.52264361846857
O          -2.48489689764419    1.76097223445784    1.36276669901403
H          -3.41896419716358    1.84202669738667    1.16390011770271
O          -1.43383463028061    0.25162619467956   -1.83970326863840
H          -1.67724355491852   -0.23514433368908   -1.03011704268117
O           1.74261522059840    1.55135420543507   -0.03898229800417
H           2.43808627998256    1.98923093656358    0.45300478939955
O          -0.83975150850169    2.54463777047298   -0.67599037305653
H          -1.39183443438852    2.44462434157121    0.12328996643548
H           0.06976591716091    2.36598525712969   -0.39559401814153
H          -1.33553275337028    1.19217571269761   -1.54014063490913
O          -1.63422672536663   -0.77419986941409    0.68512431801843
H          -1.72556674701349   -1.69215160465053    0.96487217865283
H          -2.26029747353784    0.81935464592870    1.25844152530806
H          -0.70938825382886   -0.56896051386059    0.94241209049204
N           1.10370134741743   -0.25196523093110   -1.98987819628270
H           1.52250659727810    0.55803013196450   -1.50696361691017
H           0.03059085139239   -0.08510007116451   -2.03890467678985
H           1.50698276992277   -0.39183345906050   -2.90914124077745
H           1.26357776252189   -1.10535197489709   -1.36740457773609
