    26
        -50.46192208  Gyration_radius:  2.60646331729 Dipole_moment: 2.688
 S           1.19234585177117    2.14235584802902   -0.41619192412971
O           0.80843147232172    2.53593123626965   -1.74345416012025
O           2.33697037357522    1.24451609105933   -0.35332783976719
O           0.08451302606789    1.59876167193596    0.37829930915206
O           1.63028200658152    3.48121798781152    0.32990520334346
H           1.55948256123689    4.12665421598254   -0.36647760777221
H          -0.01976806139623    0.57733074120434    1.62730655124574
O          -0.00109789017800   -0.12063119292955    2.32931826863884
H          -0.18539783888260    0.32745219216666    3.15561051960015
O           0.14484208352111   -2.12600283218904   -0.98393108783605
H          -0.15402538916081   -1.33028357400941   -1.46260590067982
O          -3.20020580066121   -0.57846406037277   -0.74060964612033
H          -3.63538748538188   -1.10898417945297   -1.40975817906183
O          -0.79157916437720    0.32961522240048   -1.73280409141206
H          -2.43956881816952   -0.15373797968795   -1.17537204042837
H          -0.43774194010816    0.94496904775771   -2.38503516922566
H          -0.57344326500713    0.77545545684392   -0.88586786875835
O          -1.62357535347501   -2.01376351497411    0.97195267351738
H          -0.55542618745764   -2.27667388716078   -0.29767226952918
H          -1.18952109236580   -1.37960395274358    1.56123193141732
H          -2.31974705462543   -1.51313447854544    0.50478017294425
N           1.89756470393308   -1.11401493111185    0.63432128090962
H           1.24995044058732   -1.61281772344796   -0.08239585531987
H           2.14731876379960   -0.15936575379862    0.22490314165821
H           1.34295834117688   -0.94176082830788    1.48721011369361
H           2.73182570648967   -1.65502081268363    0.83066450412250
