    26
        -50.46192215  Gyration_radius:  2.60664227302 Dipole_moment: 2.692
 S           1.54271961279464    1.91899698317013   -0.34996471457843
O           0.88696531250558    2.75781265424806   -1.31452818996085
O           2.35851875592331    0.85646342388948   -0.92081824357742
O           0.63415342336238    1.36508585165122    0.66079033524991
O           2.53949672792192    2.86897234708510    0.45290602976946
H           2.43742118200444    3.69534630797175   -0.00875354994260
H           0.64892172160724    0.04877339333892    1.60016897540957
O          -0.75866028527470   -1.71461446574334   -1.40911707685043
H          -0.96213184474202   -0.77126352308743   -1.55168664628894
O           0.69373564007710   -0.82088730559917    2.07119182301185
H           0.90789489917726   -0.61951796211895    2.98283040351464
O          -3.30217153753768    0.25116066022157    0.40776961447459
H          -4.05129185765845    0.03313716237343   -0.14890991966286
O          -1.17256062713062    0.97733545837347   -1.18851987144310
H          -0.88462678647995    1.68816004571653   -1.77255141621990
H          -0.58699504924388    1.09752304370392   -0.40983253623845
H          -2.63006128709131    0.64686521675435   -0.17498988105964
O          -1.72501323646784   -1.89141005365203    1.04037960986006
H          -1.22231630730509   -1.94036831780238   -0.56173870650842
H          -0.97244484800735   -1.55410812738846    1.54799988574977
H          -2.36719514354754   -1.15733980911933    0.99213001518585
N           1.61864903014095   -1.57239671968373   -0.38780888029461
H           1.42808532530239   -1.57230461546858    0.62624187329730
H           1.98030615481500   -0.59900336534749   -0.63899645572358
H           2.28982819633850   -2.28712251714823   -0.64453535352199
H           0.66877282576430   -1.70529576635078   -0.89965711324736
