    26
        -50.46192206  Gyration_radius:  2.60661878307 Dipole_moment: 2.690
 S           1.28296622961717    2.00071128233936    0.73258467916285
O           1.46121657621574    2.78916485236311   -0.45506927439042
O           2.29927417174356    0.98000899128146    0.94529960173453
O          -0.05475554426765    1.40808196642972    0.84803234111711
O           1.40291375709368    3.01552127343732    1.95598652018368
H           1.62029060379003    3.83059241963481    1.51435383189981
H          -0.65857429389809    0.10616633565412    1.59306030147421
O          -0.92781812636671   -0.75379518762126    2.00322615184174
H          -1.42019632264370   -0.52959183496851    2.79365333969032
O           0.50165589053804   -1.77390094117653   -1.45146679821199
H           0.42551831945125   -0.84569675122354   -1.74175809761902
O          -2.64961808608085    0.06565099120131   -2.02651417992511
H          -2.78787111006274   -0.20094499890833   -2.93668083517313
O          -0.03621997703549    0.89233580826245   -1.71502666411791
H          -1.77470381702177    0.49153876258783   -1.99255225813158
H           0.55408421348286    1.61147189229114   -1.96713709885583
H          -0.16703509182107    1.05651943756311   -0.75607043362880
O          -1.89693855097853   -1.97500574776545   -0.36911431565068
H          -2.34528246427785   -1.27987150950520   -0.88810550209003
H          -0.41503836530315   -2.01529489719674   -1.15921300304749
H          -1.72616005469762   -1.58859540140164    0.50228311419283
N           1.47783148083074   -1.48086318521924    0.93114960415727
H           1.87988574104084   -0.49136519762838    0.95568073121241
H           2.15960352123476   -2.15854175624655    1.25237169120545
H           0.63188702894739   -1.47878940770024    1.52198248625610
H           1.16308424957688   -1.67550721545227   -0.09095593359761
