    26
        -50.46192210  Gyration_radius:  2.60655210134 Dipole_moment: 2.687
 S           1.59763966338304    0.56544618518014   -1.82023752360256
O           0.73464176824332    1.73588349178372   -1.89376258540345
O           1.36691214319008   -0.41740501206055   -2.84235456484601
O           1.57921200254413    0.01360048738230   -0.46041237156737
O           3.08618481173999    1.09025683459409   -2.04327047642763
H           3.34183316362004    0.62635162186545   -2.83447746861359
H           1.26099701834435    0.61863727227770    1.00499469502101
O          -2.34356708349162   -0.00153106107833    0.12425845537776
H          -1.83508849445461   -0.59177976165670   -0.46281829816937
O          -0.57507702216941   -3.07870443010486    1.14807854431834
H          -1.31430795728360   -3.68343615166595    1.06778913098004
O           0.96574903820580    1.04514059279988    1.84832075699677
H           1.75779685494791    1.18282065412368    2.36905527668491
O          -1.19124692911878   -0.72010172286281    2.38714902436523
H          -0.90380783478563   -1.61483781901642    2.12173306355777
H          -0.39723564319578   -0.16635109349860    2.36012367739458
H          -2.10030680847326   -0.29691204089288    1.03946855008078
O          -0.43759694141873   -1.51376907654990   -1.11965172842473
H          -0.46565922133543   -2.65798762621538    0.27688156358400
H           0.32720979897535   -1.01027808781418   -0.76571360193877
H          -0.22484580853433   -1.57605666785367   -2.05778563698747
N          -0.85622544284802    2.12040910811526    0.11935878855072
H          -0.22288143402800    2.02406449261299   -0.73558419282026
H          -1.31614566594124    3.02349583496607    0.13113578749706
H          -1.57073385999559    1.30174309453617    0.08533207123261
H          -0.26345010618073    1.98130087080990    0.95238904345375
