    26
        -50.46192209  Gyration_radius:  2.60661499427 Dipole_moment: 2.690
 S           1.13310910946439    2.18677391255048    0.34529914774610
O           2.27119314828568    1.30009356778808    0.54188491261038
O           0.56766629065921    2.71720660153938    1.55476715736475
O           0.14589577915223    1.54832576841068   -0.53327540596694
O           1.67803239254665    3.44186300066337   -0.47263675534128
H           1.51578501925024    4.15737185653564    0.13415709613190
H           0.21332579947318    0.39765155171948   -1.66725936301215
O          -0.00681051960425   -2.00398901211446    1.21944573896658
H          -0.36669141622229   -1.16444529183373    1.56182127058296
O           0.32733274574583   -0.37167791060438   -2.27993906047936
H           0.26330230095187   -0.01742274928040   -3.16756318884539
O          -3.27626511794951   -0.53074561316450    0.34076901416495
H          -3.80251775948132   -0.99187836784723    0.99579004054685
O          -1.02883237716084    0.50773591003703    1.55774007166971
H          -2.58302078270706   -0.05249898833435    0.82937381426046
H          -0.69022760643794    0.86144897415176    0.70686815350849
H          -0.76766250762912    1.19314224675085    2.18318497406618
O          -1.47933623025606   -2.12366238203793   -0.96731709380773
H          -0.96338284393365   -1.55213496847539   -1.55469960338528
H          -0.60337184102101   -2.23557298382255    0.46140686334323
H          -2.23251405431914   -1.58334920911907   -0.66009055098454
N           1.96242633598017   -1.15554746540801   -0.23589707606811
H           2.15697380966347   -0.15961345701985    0.09829471257358
H           2.81313295645321   -1.70626489812037   -0.25229883862858
H           1.21751795384308   -1.58007525739410    0.43232317828710
H           1.53493942527653   -1.08273483537788   -1.17214921921693
