    26
        -50.46192208  Gyration_radius:  2.60650054663 Dipole_moment: 2.690
 S           1.85285920526592   -0.81434517432179   -1.44507726222310
O           0.98420770110931   -1.98179567571904   -1.49747850112542
O           2.98418757336777   -0.94529215654044   -0.56930671393663
O           1.05591751724077    0.39304280170842   -1.19793655760101
O           2.45076266789651   -0.63308398013818   -2.91153279312322
H           3.38496762926492   -0.73330123870949   -2.75711880058804
H          -0.48795724306383    0.80250862773968   -1.44940666217923
O          -1.46269214812676    0.94010060808058   -1.55530040301548
H          -1.56865070095810    1.53483490192102   -2.29863211813697
O           0.27388749782453    2.42691928671650    2.27307807005797
H           0.27860681863520    2.43134687190648    3.23149995460407
O          -1.14577085540975   -0.95008082653652    1.81297288097487
H          -0.19646603484535   -0.72629961867366    1.83349165307577
O          -2.03414683604606    1.45226655402657    1.17710950883044
H          -1.60273967312476   -0.07333204402403    1.73225029080097
H          -1.29117344059999    1.97636414129927    1.53336087351705
H          -1.91049594289378    1.43329079066066    0.21675631496723
O           1.35791149290163    0.05357121680806    1.37648033861671
H           1.19878588636513    0.29656716697930    0.43874360593709
H           2.20102550645109   -0.41115021390961    1.32716524100322
H           0.79874887450888    1.65468069392164    1.99725409163274
N          -1.44967282567261   -1.64342183367872   -0.66523719016940
H          -2.07958618512773   -2.41042443409637   -0.87049159717153
H          -1.36786964030345   -1.46049686900902    0.40336012250643
H          -0.46573295098368   -1.84798575143189   -1.02766556403167
H          -1.75891386367294   -0.76448382502220   -1.10833877294101
