    26
        -50.46192204  Gyration_radius:  2.60664378547 Dipole_moment: 2.692
 S           1.77317618278931   -1.69521361121637    0.41047853179820
O           2.21512573833618   -1.20205368277678   -0.88627414894414
O           1.09864126155993   -2.96314856592644    0.37413718737237
O           1.02070723195674   -0.65008425782287    1.11440394335227
O           3.09146532416998   -1.92335276317723    1.27712224431253
H           3.05256986209855   -2.85853995569489    1.45155201063316
H           0.98259958675346    0.96481044493451    1.04246100977818
O          -1.37349192934538    0.45909544534103   -1.84688829314713
H          -1.41365421770844   -0.37307019885075   -1.33946988606188
O           0.95844678014432    1.93978156767190    0.87178856660778
H           1.40520776238784    2.35122328799256    1.61247660972458
O          -3.01408166529596   -0.00421907081558    1.42931470075011
H          -3.89565741484336   -0.19331100809600    1.10429481325222
O          -1.18935973760146   -1.52353607210667    0.02482442903202
H          -0.43410205087340   -1.12533235465674    0.50927287925386
H          -0.90532684724742   -2.43863923309826   -0.08073088212285
H          -2.42254531577933   -0.66301227808458    1.02428809188128
O          -1.79035428585588    2.09779510167335    0.17953202512253
H          -0.89307244020770    2.16135605963184    0.53816575981946
H          -1.67359114676056    1.15281053097626   -1.20447209496376
H          -2.27015350264688    1.48020259380948    0.76431274617705
N           1.15140217257315    1.02211865972460   -1.69441573442272
H           1.19314151489548    1.64641355144240   -0.87386524686628
H           1.59626110863238    1.43621365102755   -2.50549620699130
H           1.63179477550502    0.10878107297484   -1.41825346943884
H           0.10485124249856    0.79291106488300   -1.87855959580691
