    26
        -50.46821245  Gyration_radius:  2.44325698148 Dipole_moment: 3.036
 S          -0.97434904671255    1.39998006756239    0.84905490695356
O          -0.80661812543033    1.25631453180223   -0.58407848963485
O           0.27099084392663    1.16870926199213    1.56536203289174
O          -2.08514745660798    0.61766593994332    1.35505383869643
O          -1.34655570407610    2.91439780856730    1.12709662820986
H          -2.26467948305537    2.91160004460668    0.88222605361373
H          -1.99362176580103   -0.99434409763836    1.25394478710734
O           0.33340450256714   -0.08728271548240   -2.69147772922274
H           0.05950751255586    0.71737801527102   -2.22347585569033
O           2.45452272163506    1.70713085705049    0.22650941985342
H           1.58598743023425    1.61567229420987    0.68695911338973
O          -1.83777605144591   -1.96638633383486    1.14175311817362
H          -2.36676920924259   -2.40004054837072    1.81284748299122
O          -1.87285868050071   -1.07640360202739   -1.52286316163313
H          -0.43507737654711   -0.67787380546996   -2.56129326360241
H          -1.95061140601829   -1.67383762844944   -0.76898464984362
H          -1.72090799347680   -0.19796337434272   -1.13299271288659
O           0.81270701024956   -1.42905723315401    1.28148517690624
H           0.64810222777504   -0.50267089937659    1.55125728899292
H           3.08054678843156    1.96524751066779    0.90528455459313
H          -0.07495171584884   -1.82675780631231    1.20734771437242
N           2.11990953377338   -0.70977205910194   -0.88405889029816
H           1.43016348227137   -0.53738436857778   -1.68751538985145
H           1.60006560236233   -1.15071780133714   -0.06699295548600
H           2.90700275850973   -1.27594362452718   -1.17883679882918
H           2.42701361056677    0.23233956640811   -0.54361220957476
