    26
        -50.46821253  Gyration_radius:  2.44309826361 Dipole_moment: 3.033
 S           1.15089207782896   -1.51747054418604   -0.04618271861185
O          -0.24995419387627   -1.52600209270464   -0.42037790351908
O           1.37847420795870   -0.77039273020303    1.18161074056686
O           2.01081553562321   -1.10732609335035   -1.13905066718397
O           1.55483028590758   -3.01218774471923    0.28827566404639
H           1.64761570080386   -3.36439036637044   -0.58937399658211
H           1.87090982898676    0.40544818558093   -1.69517767574262
O           1.70296408638777    1.34543709466460   -1.95962533369520
H           2.51486029518084    1.65815097189342   -2.36124531936512
O          -0.64380537735337   -0.70197552237778    2.84150075244835
H           0.09423776910727   -0.85284037357617    2.20330256768442
O          -2.63644895830234   -0.17745395670503   -0.61978781472801
H          -2.09728395858446   -0.95464244830695   -0.40379089197787
O          -0.76959840649681    0.13592015423833   -2.52371190879746
H          -0.04205353502885    0.76821364886946   -2.56983010636548
H          -0.45139324964694   -0.57131957167962   -1.93597831869726
H          -2.24546113700662    0.12100910015386   -1.46512548589739
O           0.89908474909353    1.78703433945840    0.58834590809589
H           1.21757893162468    0.90857138025788    0.87980662599806
H          -0.22970438234494   -0.63285021124850    3.70343872568360
H           1.14079775040849    1.83712806048270   -0.35542505420822
N          -1.58287980866609    1.27061092691705    1.28788317334717
H          -2.08884504066407    0.75994048282214    0.49152540936679
H          -0.63840975457915    1.61335219043640    0.93755828616767
H          -2.14162574675141    2.02762688941831    1.66429654044771
H          -1.36559768969797    0.55040823031358    2.01713883143344
