    26
        -50.46819158  Gyration_radius:  2.44282830867 Dipole_moment: 3.153
 S           0.04981379666575    1.49450721979277   -1.16508966430441
O          -1.06287139482865    0.59656807105981   -0.93496330942663
O           1.29896400705611    0.76257094209969   -1.32546475002489
O           0.12762513419914    2.55590064713925   -0.17880914317202
O          -0.20353900441167    2.23130087207529   -2.54556306500949
H          -0.55987663539609    3.05388857992100   -2.23020015638425
H           0.34383445010653    2.13058967944616    1.37068823972360
O           0.48954370606747    1.76213146558064    2.27838549464352
H           0.92118401617047    2.45433044782616    2.78128412435522
O           1.00890986801440   -1.65640403854048   -2.28621980461616
H           1.03795036112756   -0.70798213942740   -2.01394792835387
O          -2.20437591099288   -1.64130575378615    0.19474904040374
H          -2.07952778690841   -1.03897710920888   -0.55440131695206
O           1.72589891439535   -0.32556119997317    1.07321555278368
H           1.32450348865283    0.32177188389253    1.68265465325003
H           1.72818863493411    0.11833723676828    0.20088841178860
H           1.83802764756300   -1.82100530500871   -2.73854757435837
O          -1.99632743967796    0.62583937155755    1.62172844483927
H          -1.73014078845202    0.83948434230436    0.71001951474991
H          -2.32554537491623   -1.02505644609403    0.94452953789084
H          -1.27599016670471    0.95362998943281    2.17350867683942
N           0.31241729933556   -2.36626715893513    0.20376692853060
H           0.86026386870416   -1.60236194260292    0.70186358175697
H           0.53052509815787   -3.28525633533079    0.57111397061820
H          -0.73537786813051   -2.14925651950658    0.27154177846234
H           0.57592208913923   -2.28141680036108   -0.80673123840826
