    26
        -50.46821174  Gyration_radius:  2.44363268625 Dipole_moment: 3.049
 S          -0.18088624833329    1.63776626783820    0.95924816647449
O           1.08615542602836    1.62097016629291    0.24375678728940
O          -0.51653475202746    0.33163795157099    1.49158391582494
O          -1.26784557102358    2.21703965904941    0.19415143055946
O           0.04362335037706    2.60407557312550    2.19408386967999
H          -0.85801629717753    2.79521529425739    2.42544353720608
H          -1.71626533699550    1.48187560490362   -1.17519037480278
O          -0.55208781503644   -2.39252387110567    1.14453969219741
H          -0.40322476974973   -1.58621598630327    1.66359162256801
O          -1.91341329802382    0.95395316467272   -1.99018445699218
H          -2.32144810380909    1.56140462645819   -2.60888133932837
O           2.80939208822855   -0.18410113167106    1.03201331394945
H           2.14011315515258    0.52091465585894    0.85898008722938
O           0.68085051819635    0.17788642602535   -1.96482086428066
H           3.66066831271952    0.21808163994377    0.85118532891160
H           0.90319075147215    0.82029129737273   -1.26063661227766
H          -0.26414184314822    0.33247702628722   -2.15093460657914
O          -2.48935133957481   -0.89037271656724    0.04973374037733
H          -1.96163467048075   -0.29623426255910    0.61115814466056
H          -2.51084984670690   -0.46261876412118   -0.81511341558736
H          -1.38823901886012   -2.19094117258943    0.67895540577179
N           1.41441972673548   -1.88170695347967   -0.50304592450752
H           1.85310884813365   -2.66841122459681   -0.96734206165123
H           1.06150805734449   -1.15853288739292   -1.19910515194375
H           0.60080848471496   -2.19206812661633    0.12402226455742
H           2.09010019197322   -1.36986224648806    0.11280750116986
