    26
        -50.46821177  Gyration_radius:  2.44311763962 Dipole_moment: 3.035
 S           0.18042829257412   -1.73949843978325   -0.75278286537620
O          -0.80906422126620   -0.98770074859969   -1.50982047377473
O           0.11174367848834   -1.44345567727221    0.66483941305187
O           1.52615272810158   -1.61478283193089   -1.27775762513943
O          -0.21545778656056   -3.26270561000694   -0.93399267308187
H           0.60472288051785   -3.68067635111121   -0.69828118637685
H           2.21866429727357   -0.15202113696128   -1.26702635666864
O           2.54690899602761    0.78117935210864   -1.21244734462043
H           3.20902707098412    0.87107817053053   -1.89928580757798
O          -2.97292802433292   -0.34176949508147   -0.18677337285417
H          -2.16990547395197   -0.70213584038634   -0.63417162902266
O          -0.23141524600438    0.38881969091703    2.68349655559484
H          -0.37747921254747   -0.47454848367278    2.26569144435342
O          -0.04098522638138    1.56442101352464   -1.36833153541550
H          -0.34114512179362    0.65875771873650   -1.58661787110755
H           0.92955059410434    1.49396371015051   -1.29984948253539
H          -3.65057051044323   -0.30426493919791   -0.86397235799812
O           2.16722682366844    0.14743901910541    1.49886982046666
H           1.61030200934393   -0.57164511568110    1.15299270178429
H           2.51853180518191    0.58925049745658    0.71622723902929
H           0.72386059210368    0.53559518106480    2.53507842504756
N          -1.51761912485586    1.67934168379873    0.80505878348305
H          -0.98873397640559    1.24620264838762    1.63179144052306
H          -1.93783221048019    2.56797875005652    1.05146975920125
H          -0.85531524596288    1.77169924731489   -0.02246504835480
H          -2.23866837698316    0.97947798659186    0.50806004689297
