    26
        -50.45568729  Gyration_radius:  2.56672710989 Dipole_moment: 1.980
 S          -0.62084282554702    0.27383159650882    0.74941474904181
O          -1.50485852179350    0.11484582210765   -0.39033642386936
O          -0.12242521761330    1.63027015569996    0.88147741056375
O          -1.38226088123582   -0.06802438958555    2.04544346961303
O           0.50672031382294   -0.68773711498127    0.65592429272935
O           2.06478028001936    0.94548578104716   -2.33822102680522
H           1.93014242788050    0.22941743617498   -2.96137290317183
O           2.31545847784201    2.29241611733198    1.43063581973947
H           2.43950133217137    2.22918469455997    2.37946097854665
H           1.34341864946731    2.17494772957410    1.26740875004861
O          -1.19412491757118   -2.57943408460650    1.65854511838985
H          -1.83731130991272   -2.70319246862700    0.91280068623737
H          -0.34871983270068   -2.36357044042305    1.24300926668382
H          -1.42048357303213   -1.07538536599378    2.03809633986956
O          -0.30364349951894    1.93334689282828   -1.87157090946524
H           1.17394535178764    1.38260014431211   -2.21715539806374
H          -0.84180070645797    1.22843055028263   -1.45191798736887
H          -0.21858089793705    2.59804812042901   -1.18119872136826
O           2.69628261658897    0.22693431562869    0.00604210818443
H           2.53225684927753    0.52157888610417   -0.97211713693802
H           2.71922372752218    1.08465309889408    0.56812653110610
H           1.77026485282613   -0.23065912395849    0.30174892532979
N          -2.79862643246283   -2.42010308355142   -0.48049211210149
H          -2.44088525897721   -1.47091183651443   -0.60180589138637
H          -3.79556661993719   -2.35103685818492   -0.31968273076508
H          -2.66186439455147   -2.91593657506981   -1.35226321476073
