    26
        -50.46819266  Gyration_radius:  2.4424370581 Dipole_moment: 3.231
 S          -0.64470858135292    1.47905286785683    0.98673842596115
O          -1.25762286909612    0.83012759304626   -0.15275586962516
O           0.77966859285167    1.69663175895202    0.76894545358409
O          -0.93619611167441    0.81216486659235    2.24237020151844
O          -1.29338600224818    2.91873996609443    1.12957452629629
H          -1.85021135343854    2.77290065417989    1.88573537196806
H          -0.46623741765694   -0.73187622375520    2.40418795514156
O          -0.12013334793253   -1.65966138711804    2.40130154744906
H           0.02931397522782   -1.89188698344133    3.31892879883915
O           1.43352745813595    1.96613686108680   -1.75333158137749
H           1.09222727114055    1.94337204476752   -0.82734736956607
O          -1.32577549225596   -0.99494752066718   -2.21781678979879
H          -1.51519947415643   -0.11064492697767   -1.86986468925487
O          -1.96080651363690   -1.76199093608662    0.27799488272428
H          -1.86299072427489   -0.79355155987239    0.29567789532900
H          -1.63393132240808   -1.57830299428969   -1.49564523792508
H          -1.40263972714794   -2.08053287068633    0.99743704716519
O           1.77210925177012   -0.77835014421212    0.67393278793647
H           1.53205138670772    0.16091002792113    0.80927399291435
H           2.22915723240005    2.50026970904817   -1.72229086012946
H           1.18469074609710   -1.27702903583199    1.27227032862065
N           1.25959897838174   -0.70539599517971   -1.90500706277833
H           1.39061179197488    0.32672939035298   -2.02982500205921
H           1.86355546096454   -1.23598014957154   -2.52209617774134
H           1.47932516830668   -0.89353930559027   -0.88125706104163
H           0.22400162320880   -0.91334571622178   -2.08713151465689
