    26
        -50.46821042  Gyration_radius:  2.44297167042 Dipole_moment: 3.043
 S           0.61909578964313    1.52191606711655    0.95955800240399
O           1.12552276505609    1.06879759861606   -0.32096305497161
O           0.43667125106079    0.41667460276771    1.88856719208427
O          -0.55504366639753    2.36193825465801    0.82335954388949
O           1.73347708759760    2.44237481285217    1.60837183280642
H           1.55442673856973    3.26392570524639    1.16558251560100
H          -1.89682869091397    1.70404626672447    0.20144819706277
O           2.01948028584993   -1.63141627411943    1.49844644103459
H           1.52624439503431   -0.78637858080989    1.63027497232558
O           1.13452729489948   -0.78699676272883   -2.34977357132204
H           1.57666950369361   -0.17882253932009   -1.73695252944199
O          -2.65897838518342    1.20381223425059   -0.18637916076266
H          -3.45165789141965    1.64641136185792    0.12028223917285
O          -0.77926476226822    1.09566056426795   -2.27374059512019
H           0.36866842374816   -0.26006787383586   -2.65349332898053
H          -1.63644700487599    1.08688733221177   -1.83077342782389
H          -0.13832738824620    1.31983787930972   -1.57654207187440
O          -1.57030110429918   -1.03045330383508    0.88769260399115
H           2.12247160718538   -2.00929546374650    2.37352990450670
H          -2.11131720219254   -0.36080788568832    0.42860734297100
H          -0.91764383431964   -0.51334406174684    1.40208762702858
N           0.29189969356494   -2.34556833858377   -0.42325635381966
H          -0.56511560522067   -1.88231625515983    0.00470568588289
H           0.60199123269082   -1.78493313291382   -1.28348959985431
H           1.04998195160838   -2.24371319021263    0.29279350208016
H           0.11979751500816   -3.31816901702174   -0.64994391899358
