    26
        -50.46819129  Gyration_radius:  2.44251084525 Dipole_moment: 3.212
 S           0.24203055967932    1.86973350329338   -0.16428781549752
O          -0.16068303171614    0.93276021663931   -1.19164741747989
O           1.36059624585108    1.35384453300560    0.61410818972597
O          -0.86723415541852    2.32015158709759    0.65604628548876
O           0.77451880578311    3.17743339265193   -0.88541245646572
H           0.03394213844118    3.75585774670279   -0.74399268019852
H          -1.68964330508034    1.20046623157670    1.49227630956719
O           2.89767105781898   -0.30370962905788   -0.70850085487071
H           2.32241984571777    0.39392336580806   -0.31252542423695
O          -0.68056773049208   -1.59990751713621   -2.14824154960083
H          -0.32166454909528   -0.70871197142652   -2.27451448731032
O          -2.10841958539165    0.44066100544557    1.96992886500222
H          -2.52261027662834    0.81160175927702    2.75044502244943
O           0.32333684436955   -0.75071184839716    1.88431118671690
H          -0.60920535995602   -0.49466219919065    2.01239221385898
H           0.76619659499476    0.06143621200890    1.56422391204378
H           3.75025092360964   -0.20943823921885   -0.28012710133048
O          -2.53817144784977   -0.29872286887251   -0.70833319385247
H          -1.54354991550545   -1.42336516776325   -1.72263923829323
H          -2.67379822454109   -0.26323804012521    0.24619275690950
H          -1.82051085223921    0.33553213102976   -0.88255574410575
N           1.01614278088466   -2.15320109377757   -0.23017073436332
H           1.25987790146931   -3.12728921147672   -0.09300075167449
H           0.29398472985028   -2.03056531984560   -1.01280496757233
H           0.64290110744668   -1.71081114217571    0.66250711834044
H           1.85218889803826   -1.57906741603115   -0.49367744336134
