    26
        -50.46821255  Gyration_radius:  2.44310731233 Dipole_moment: 3.032
 S           0.47432952848400   -1.80929640223338    0.36222181638177
O           1.03482886325485   -1.40570537796107   -0.91855067024758
O          -0.83937518838004   -1.23571860621829    0.58072199951912
O           1.36817016169247   -1.58146493714885    1.48076290835252
O           0.28885164147236   -3.37948747548307    0.26576375942948
H           0.19236555887833   -3.59699713008383    1.18575986764156
H           1.79238546451308   -0.05819425558596    1.82273287169052
O           1.98537084684392    0.90575648722117    1.94637815437233
H           2.83285281203154    0.95276508706563    2.39115892701092
O          -0.71592983991734   -0.85130230165822   -2.78308501290220
H          -0.12702256680268   -1.16366433008415   -2.05474183444932
O          -2.53000595057294    0.91870770015160    0.34809529008922
H          -2.32129036227356   -0.02713944015136    0.29177154745722
O           1.54671677922844    1.20520775198015   -0.70890772127809
H           1.73984574469862    1.31045103481179    0.24149528840723
H          -0.26270050794107   -1.07831976351494   -3.59685880952759
H           1.51724238896953    0.23718547519532   -0.85063428542501
O          -0.78773495711432    0.81052424900685    2.38784057794731
H          -0.73616885804228   -0.04778677791317    1.93230753830857
H           0.12363459899523    1.12475928729130    2.43181520451544
H          -2.09853638363255    1.17949682067694    1.18618344081455
N          -0.90292771341473    1.54799008545766   -1.60193390549404
H           0.08121127159065    1.56458756069581   -1.19759734137349
H          -0.94199761981373    0.69311780917713   -2.20641136350730
H          -1.60699941176316    1.39567876049751   -0.80689087143283
H          -1.10711631085179    2.38884866889876   -2.12939738646117
