    26
        -50.44849332  Gyration_radius:  2.49538430265 Dipole_moment: 5.421
 S           0.33201806729657    2.23218398941381    0.62768377905814
O           0.83451348143679    3.46267295539984    1.11213797997608
O           1.28686897810226    1.32384314368946    0.03164628780899
O          -0.81147231889481    2.49445810003737   -0.36157198672550
O          -0.39389655652673    1.43391514159984    1.76615595347051
H          -1.78817286912871    0.35388375268078    1.68425557039510
H          -1.17547937386751    1.62010977241696   -0.73117989522243
O           1.33341055027218   -0.32534113689665    2.13768986130241
H           0.30600604105554    0.72497937887180    2.06973339797972
O          -2.41450769137895   -0.36116232208067    1.46133930072387
H          -3.16335741977817   -0.27181354210192    2.05251707600869
O          -0.02250749445197   -1.72391957664016   -1.63741668622340
H          -0.17941388352540   -2.33899362717811   -2.35495068600420
O          -1.78369549671167    0.26831063021957   -1.14056098109976
H          -1.12841838373276   -0.42198983002008   -1.37408434843543
H          -2.22111664646614   -0.04404788534960   -0.33192255072360
H           1.79359399708789    0.01763968104609    1.35719549053170
O          -0.25415099866645   -2.15161199913349    1.08326308269144
H          -1.11428158492440   -1.74557826538841    1.26103581601574
H          -0.12917736006654   -2.10660809279927    0.12016383019441
H           0.83494131138560   -1.12876937472710    1.83093925177513
N           2.07733704090220   -0.23202198445406   -2.20126580047567
H           1.90065743669363    0.43265991799378   -1.44694653578270
H           3.01660215966258   -0.58923206841087   -2.07925197140294
H           0.81023336126815   -1.20987453807185   -1.86608345144878
H           2.05346565288556    0.28630776996500   -3.07052180445468
