    26
        -50.44493658  Gyration_radius:  2.70436566774 Dipole_moment: 6.282
 S          -0.96122362615558    2.65296318831936    0.90661418181337
O          -0.50819609969175    4.00266296560746    0.81430274074280
O          -1.11959284487275    1.95853090753951   -0.37167570997064
O          -2.43984107554464    2.73056774993427    1.53385827574410
O          -0.20948323876286    1.80967091157111    1.84009295278426
H          -2.77169807013550    0.47115592869312    1.58386629694078
H          -2.51030721681803    3.66345620418933    1.70676944722117
O           1.15502663210748   -0.05967883229442    0.96052622931021
H           0.63941052903848    0.74436920320881    1.40590107580523
O           0.09753475313638   -2.13890025958823   -1.72911925283131
H          -0.08867535039991   -2.83317315252842   -2.36131696685066
O          -2.45524064372777    0.01899052673755    0.79921579048886
H          -2.03126927686054    0.72313476398164    0.26564881563607
O           0.79614968045033    0.56716754791137   -1.46853849975002
H           1.14916529017973    0.18894940036466   -0.04588578836396
H           0.33893099106524   -0.21435960872989   -1.81621329821483
H           0.08771319413494    1.20911016927404   -1.22638816873585
O          -0.59467621733568   -1.83718104893125    0.88548779780186
H           0.46209003165409   -0.87318565623883    1.02541568917747
H          -1.38825745319055   -1.24681724434543    0.93474759235792
H          -0.52128499555526   -2.09444914524128   -0.05334088025546
N           2.70230846957756   -1.90538719478999   -1.09015314553283
H           1.07121671061417   -2.16771789661509   -1.53091966277169
H           3.41950817530205   -2.52466022473980   -1.44612352124037
H           2.89001768790468   -0.97301702297495   -1.44146296976495
H           2.79067398402418   -1.87220218091204   -0.08130902159434
