    26
        -50.45048647  Gyration_radius:  2.70094977117 Dipole_moment: 6.736
 S           2.96085415049580    0.01825601049109    0.48729535348506
O           2.26976855292358   -1.01119825844960    1.26863243790207
O           4.25265635232862    0.39057638313609    0.96234644763154
O           2.03731167248173    1.34847835646226    0.72293068010489
O           2.84959456935455   -0.25126370709179   -0.93672198771643
H           1.49959635640141   -0.26954199903652   -1.68607330504967
H           2.72189550678887    1.96326399421442    0.96573088940495
O          -1.73000373697816   -0.26628705249431    1.77037199106193
H          -1.64146969999878   -0.32510594999352    2.72212640409965
O           0.60258031386088   -0.41803989000147   -2.11242074017106
H           0.78602733507870   -0.77035650374831   -2.98435874885034
O          -1.42871225209542    1.37432433096734   -1.55557927739835
H          -0.65241332065644    0.89891352898543   -1.88958036738687
O          -0.68597801204319    1.92257933959423    0.93985336614419
H           0.27391814245266    1.79543290248874    0.91206474027507
H          -0.98007787450426    1.90662086541773   -0.00297711678033
H          -1.35796894613961    0.64031644616050    1.50894101621346
O          -3.11110837757653   -0.62751708449269   -0.59868470762638
H          -2.81047751540954   -0.52868661044149    0.31857937523093
H          -4.03362523176563   -0.36919248591221   -0.61489598791181
H          -2.09169699556490    0.68518836836961   -1.37870666408462
N           0.03324583843934   -1.63838927178808    0.22887596282540
H          -0.11123880870085   -2.64164708680113    0.19519495620807
H           0.04551824246384   -1.23936249138706   -0.73324626738372
H          -0.70381169402981   -1.18064020049021    0.81089549763124
H           1.00561541241229   -1.40672196414870    0.67940603212939
