    26
        -50.45048646  Gyration_radius:  2.70103469706 Dipole_moment: 6.734
 S           1.61027074102351   -0.58794745465413    2.46295394855968
O           2.41202148811371   -0.41590326269879    3.62947487944332
O           2.34160884305372   -0.89049029937510    1.22945261334214
O           0.98466005256687    0.89591978614441    2.17179490791373
O           0.44764144838567   -1.44950395931160    2.59975742084559
H          -0.73053254488058   -1.43686153917743    1.60203309928806
H           1.26173673926685    1.33331059508985    2.97022879172200
O          -1.40623377160368   -1.50943856732654    0.86258874171367
H          -1.95144665470041   -2.26557330106375    1.08411328135620
O           0.89002521564673    1.09222385629323   -2.05255336089551
H           1.75360094771006    1.46412780605540   -2.23438410254175
O          -2.36667072889029    0.82302694609069   -0.27173426059034
H          -2.17367953208750    0.05023895652482    0.28122199622415
O          -1.55986059540775    0.06859843360277   -2.82769476407068
H          -2.25218865516664    0.51484432254668   -1.18699782724214
H          -2.03625502324448    0.53832501210949   -3.51358898718894
H          -0.69231505318977    0.49594513686814   -2.74870367383974
O          -0.13253022251590    2.24313519097880   -0.00277606128440
H           0.51221513689668    1.62460334465548   -1.27649511683871
H          -1.04678415951862    1.87065484690139   -0.03417690687387
H           0.27682369404280    1.85392145962860    0.78418496174572
N           0.76275387118524   -1.27452324206458   -0.72926174354582
H           0.80228144310622   -0.41147250913231   -1.31665403876576
H           1.46183385373068   -1.14253292089295    0.10499413127097
H          -0.18382778342224   -1.39442723311896   -0.31113078787109
H           1.01485124992595   -2.09020141464026   -1.27664713196869
