    26
        -50.45048651  Gyration_radius:  2.7010295681 Dipole_moment: 6.735
 S           0.77600324457901   -2.89405957602807   -0.16168966232011
O           1.89744730212045   -1.99523688885184   -0.44875071806276
O           0.92231205566426   -4.23279834062024   -0.63026753234770
O          -0.44026101694042   -2.27371673526996   -1.06374718053900
O           0.32458389636015   -2.73614479423645    1.21093988407006
H          -0.26544265237922   -1.41760786559286    1.75614724777975
H          -0.72693722610736   -3.07196103665659   -1.49517377560167
O          -0.50619327642675   -0.51193451688751    2.11720814968391
H          -0.57156896650342   -0.62140749885862    3.06683740408567
O           0.72414157182872    1.75768638114424   -1.60765486601974
H           1.23490441534540    1.68964060763336   -2.41488839516194
O          -2.18469506027715    1.09406999982286    0.61631429263156
H          -1.78087434919379    0.43498632884133    1.20177683710132
O          -1.35471792533360    0.26680014900431   -1.77262452674988
H          -0.10983065023073    1.19970073605597   -1.75475453364110
H          -1.07476027337886   -0.64435357459431   -1.60010441222127
H          -1.83606351745730    0.55179162072911   -0.95856951036063
O          -0.33154571646156    3.17035090040525    0.52327636708300
H          -1.63356997199587    1.88963511934605    0.71165884989508
H           0.06814828232123    2.86078852640636   -0.30491732541105
H          -0.74009444232909    4.01568726613701    0.33215285975817
N           1.52921628437757    0.31742521036587    0.54767175025828
H           1.26381244241094    0.94382419936128   -0.24522055194947
H           1.72405733632357   -0.67925381018953    0.13445242320392
H           2.35304719388454    0.67142296589966    1.02147020202869
H           0.73888102978291    0.21466459664483    1.21845674281308
