    26
        -50.45048647  Gyration_radius:  2.70100702698 Dipole_moment: 6.734
 S           2.44668113129010   -0.70432331785953    1.58787273258115
O           3.35032070182793   -0.87959701208256    2.67685448251318
O           2.61422332174721    0.53074123084114    0.81688980749441
O           0.98420484461481   -0.50770128217164    2.29523164913107
O           2.27042450048423   -1.84550565983488    0.70503076202093
H           1.07191496649535   -1.98718530475889   -0.25783166891599
H           1.22311159568172   -0.72126266980322    3.19123798297668
O          -0.93554400094013    2.29614517340102   -0.22539484284847
H          -0.66973897655945    3.11882497790134    0.18652531928347
O          -2.19609771300519   -1.20475050511986   -0.27591177379267
H          -1.35769280650644   -1.66582061782436   -0.43313772226723
O           0.36572981164387   -1.98061520753421   -0.97191178158478
H           0.56810765239625   -2.72349814495916   -1.54220951763580
O          -1.49218733131850    0.56540845146166    1.58200169921684
H          -1.20054464058867    1.67545180997416    0.53151284490967
H          -1.87843332857150   -0.15053443069380    1.02181495904201
H          -0.65424514484455    0.20936933856702    1.91280771203519
O          -2.23824834246793    0.83027485972241   -2.17602222793997
H          -1.89795542547594    1.49847749513740   -1.56024116690984
H          -2.30310396819920   -0.60694391901823   -1.03547866284630
H          -3.12983818236142    1.09620285675349   -2.40495595412905
N           1.00371831815607    0.63750462473933   -1.15083122311043
H           0.62250165626708   -0.32604082857112   -1.25782365700924
H           1.45679310066370    0.93691942776711   -2.00731692252639
H           0.24881583959004    1.30739209415688   -0.88093803856295
H           1.72708239991016    0.60106652979656   -0.32777481111074
