    26
        -50.45151260  Gyration_radius:  2.59228703139 Dipole_moment: 6.139
 S           0.86389557759878    0.36318263414592   -0.20102852469985
O           0.53149102762014   -0.46075752922511   -1.38380329098628
O           1.63836112459033   -0.39091633433141    0.75706512025544
O          -0.36654363783526    0.89044675473078    0.39675338512766
O           1.72029105244308    1.54172168469759   -0.68730090304845
H           1.26055646145329    1.95048234881006   -1.48049360940583
H          -1.17811092675516   -0.34308129793207    0.95000623804585
O           0.50425201050320    2.78481145451817   -2.58415569126136
H           0.90357523099205    3.65598900510494   -2.63365500380045
O          -1.64623369826595   -1.18968675489487    1.19989283771913
H          -2.58440111431949   -1.02536560895695    1.09070446187685
O           1.75833078217690   -3.10302858620761    0.94119499382767
H           2.21571610189454   -2.27335217902137    0.73047821155174
O          -0.24708176059952   -2.59196697938882   -0.49374465342686
H           0.58436790536800   -2.93227851307698    0.05355491174824
H          -0.88985961082273   -2.22530094068396    0.18018797952831
H           0.11931960182048   -1.65968452039111   -0.99938436581187
O           0.56987898426365   -1.73432956022229    2.89796704506717
H           1.01898374536847   -1.04331028418481    2.38244998777777
H          -0.36444815676939   -1.64322170849259    2.67958910299302
H           1.37817857974977   -2.92165651407460    1.83041279736369
N          -1.67891444899015    2.92761468265090   -1.07628161062568
H          -2.55031738922808    2.57451166591777   -1.45049998864185
H          -1.88998003719277    3.74236628109740   -0.51391202317170
H          -1.29317153210070    2.21222728933595   -0.45540183993938
H          -0.37813586295981    2.89458348007955   -2.13059554806151
