    26
        -50.46146979  Gyration_radius:  2.59271006572 Dipole_moment: 4.208
 S           0.19869647642094   -0.44270558554970   -0.56028630824072
O          -0.61544056774034   -0.77987991019552   -1.70315122695950
O          -0.30191778611069   -1.26838940242127    0.68132304644169
O           1.60759552381478   -0.84895164444133   -0.70377808125087
O           0.12240807039343    0.95912573164144   -0.17401904105354
O          -3.99160911336548    0.08490555334261   -0.05568692655434
H          -4.84217093706948    0.15224726980452   -0.49210472993592
O           3.31756168142192    1.24032820816960   -0.75360359259776
H           3.15265601201789    1.78764526378543   -1.52279895335874
H           2.74984613139014    0.45081185372370   -0.85886984903454
O           1.96927513793491    1.74339373241920    1.51626076204145
H           1.14838529540724    1.63290311531930    0.98051957667602
H           2.12440962120165    0.30190379687502    1.87090726481077
H           2.66094011911306    1.83451266978631    0.82920784283579
O          -2.17911751938757    1.38794965006933   -1.51139248294842
H          -1.76335969744077    0.60917201642603   -1.91777693444469
H          -3.37686958540462    0.67164707286954   -0.55894960761538
H          -1.48942140745486    1.68926834271811   -0.90251318660999
O          -2.48471439006206   -2.11031898935556   -0.30113545889833
H          -3.13328206923210   -1.39131363794117   -0.11574441498716
H          -2.07919106790546   -1.88378047771244   -1.15210427441551
H          -1.19655822053451   -1.66378387941973    0.41746012230933
N           2.12724747408002   -0.79797900592006    1.80998449047536
H           2.02650239757884   -0.96467889147161    0.75056528968619
H           1.28091820462820   -1.17532123011926    2.23370123456976
H           2.96721023630339   -1.21871163239948    2.19398542905570
