    26
        -50.44747963  Gyration_radius:  2.44646512694 Dipole_moment: 6.069
 S           0.08007294245471    0.43035365386240    2.38465264208886
O          -0.90722936154543    0.91420231484461    3.28338744482841
O          -0.08452249581615    1.09334576630662    0.99293496504146
O          -0.14838372695460   -1.09125494474201    2.11108755416779
O           1.46340370003370    0.56108729306241    2.71890628616009
H           1.94159324916847   -0.20718850195234    1.28089096810105
H          -0.98764568518821   -1.27375684983743    1.61888965109571
O           2.18123089150832   -0.73707817254792    0.49339581081581
H           2.63613481109319   -1.50938256464214    0.83601210829250
O          -2.02857065490861   -1.74357628242392    0.43193697964846
H          -2.34416312476656   -2.63652313212143    0.57810327475004
O          -0.57318366477383    0.62348787467500   -2.43829594987292
H          -0.66286282150771    0.93037005367651   -3.34092298911140
O          -2.24757860268587    0.88717569410422   -0.30416273483676
H          -1.78773649534290    0.83648618853867   -1.16701192264579
H          -2.51071967970099   -0.01889316075950   -0.08414082497728
H          -1.02154262413595    1.07757455747676    0.58423078926234
O           0.07875636083173   -1.67770142948234   -1.05968576184847
H          -1.24779954598990   -1.81199295818351   -0.20181920558428
H          -0.11777948799964   -0.95392050771932   -1.67743727664730
H           0.80940216899471   -1.35426132873366   -0.49740863372857
N           1.61333349214240    1.59185012709313   -1.31506392773875
H           2.28181001388108    2.25391553373662   -1.68897653419952
H           0.25645941846126    1.05107061796945   -2.06261266119800
H           2.12469500387719    0.77273782079566   -0.99952713942919
H           1.20282593884595    1.99187234698479   -0.47736292241289
