    26
        -50.47250318  Gyration_radius:  2.48734636193 Dipole_moment: 2.884
 S          -0.17513490862677    2.10980558506624   -0.81393667606891
O           1.03467263379214    2.33902476492311   -0.03336876235268
O          -1.12677824378491    1.27424661942352   -0.10695180297204
O           0.12238733673557    1.64077561187964   -2.15377009940200
O          -0.87180730534942    3.52216397345990   -0.98578372525042
H          -0.26256073606472    3.95624367106522   -1.57303129050605
H           0.63308762694450    0.13170067187337   -2.17854373244556
O           0.88879874869494   -0.82792878465850   -2.18176740669041
H           1.40961103876868   -0.95925265663265   -2.97541819871730
O           1.54414298902932   -1.76410740583533    0.30097175505189
H           1.39992089398542   -1.47512980845029   -0.61995708695976
O          -1.15258286227112    0.06741710094472    2.30809359280957
H          -1.38222005141569    0.60794202536569    1.52968852600797
O          -1.06051032205665   -2.34644529637630    0.98059332595378
H          -1.37910324009002   -1.91311970657698    0.13606983350972
H          -1.58405567533477   -3.14019090777846    1.09175868826554
H           0.69522226948650   -2.14844392237274    0.58525760979266
O          -1.70622288591564   -1.08997468969346   -1.20778334429789
H          -1.23673991943965   -0.85479959948522    2.00394625131632
H          -1.65130945319646   -0.17023506412436   -0.87876019236750
H          -0.92340761558380   -1.19228015642338   -1.76873816021460
N           1.38229015567608    0.45059351905545    1.72970267717508
H           1.30772352182706    1.25483253896593    1.04137118012527
H           2.08628438294792    0.63829978941659    2.43398293687488
H           0.41307747512936    0.32480040483894    2.15196296801414
H           1.59521416611148   -0.43593829786343    1.18441112334768
