    26
        -50.43891931  Gyration_radius:  2.47153500917 Dipole_moment: 7.261
 S           0.91380871893832    1.83293763336637    1.17352854551254
O           1.61757231681675    1.83483150016645   -0.10195782106555
O           0.76130322432805    3.10660829635263    1.80176014183080
O           1.86556169932233    0.98455489060836    2.18150714713705
O          -0.29906341262001    1.02759280665271    1.08209315494030
H          -0.47295667820434   -0.36304491830056    1.60382959358593
H           2.17901573396990    1.68738516914643    2.74080092962424
O          -0.73224027772104   -1.31677581553759    1.83706442771968
H          -1.32344675409619   -1.24228195727846    2.58839695154660
O           0.18909919484672   -1.55558489745268   -1.86803772540429
H           0.45881801470542   -2.38003619763205   -2.27387904337928
O          -2.63595142277137    0.77680476227256   -0.87006954585833
H          -3.18732617673487    0.91573989453500   -1.64291407398811
O          -0.29937216505601    1.32260338330396   -1.86551524331493
H           0.38580531028556    1.62798739017727   -1.23428897381133
H          -0.01737188389881    0.44154246095619   -2.14008820939713
H          -1.73153863470249    1.13915543674970   -1.10469567915429
O          -1.87177467260690   -1.55925075563191   -0.39804381418700
H          -1.44824410120988   -1.52805538403781    0.55472380555091
H          -2.26827931222266   -0.59463955038171   -0.55669730442442
H          -1.06153094973624   -1.60785983778278   -1.03885048763220
N           1.86419784593875   -0.92419908622963   -0.03642873853268
H           0.90536126858725   -1.32075037871471   -1.14592706023414
H           1.84773103154370    0.10121428540523   -0.05748805281020
H           1.52889627039370   -1.19420916742098    0.88086450159934
H           2.83192582190443   -1.21226997328956   -0.10968739585908
