    26
        -50.46942772  Gyration_radius:  2.44001009693 Dipole_moment: 3.751
 S          -0.33321329541079    1.33801099291930   -1.11338654285965
O          -0.64620425595541   -0.09321608274474   -1.34273058871188
O           0.54984684732802    1.84895399437058   -2.12964558976143
O           0.21721456559860    1.49527978286371    0.23229078735992
O          -1.67453222001518    2.10573328028356   -1.18956910434923
H          -2.27677096214525    1.71147204717173   -0.50518100039074
H           2.40949932744492    1.55863436004892    0.00657342441618
O           1.04689332671757   -2.39950254270484    1.12749251422656
H           0.13733534265260   -2.67665717171104    0.96656425716460
O           2.74421190125832    1.25317349480536   -0.84389108874375
H           2.08401741353440    1.61453025798861   -1.48030682359698
O          -3.27614160805794    0.89478302660103    0.49450783277013
H          -4.07571170440950    0.68295040466614    0.00898637572959
O          -1.72242549354511   -1.25017721440997    0.77192501742397
H          -1.15422321335649   -0.89341851138666    1.47480245169865
H          -2.82672404694992    0.03442110376396    0.68276891614062
H          -1.33582966939026   -0.91566100778256   -0.06791452035438
O           0.26830565861674   -0.06855649677053    2.27573059332118
H           0.22030199080726    0.47700537891538    3.06129243236333
H           0.26951978445130    0.56024966305505    1.50464446381023
H           0.96919964585538   -1.62981723193723    1.71943501907617
N           1.70456113373237   -1.15320214402037   -1.14099112007608
H           2.07169029149021   -1.70569218312280   -1.90832550206323
H           0.72522883923712   -0.78632161225208   -1.36101024856954
H           1.61334045724828   -1.72333809753692   -0.25928105980554
H           2.29060993355140   -0.27963751139466   -0.98478086614590
