    26
        -50.47250298  Gyration_radius:  2.48711584844 Dipole_moment: 2.890
 S           1.76598815857969    0.37637313462837    1.37215780638925
O           2.44971770005616    0.71613630527272    0.13019021696737
O           0.90327715275037   -0.77921912856688    1.21793741625969
O           1.09732952782317    1.52308820057393    1.95645933738953
O           2.89218223009644   -0.04971484977357    2.40155542163138
H           3.32202748045395    0.78383958439155    2.55914720432298
H          -0.20532758509678    1.95195126832348    1.14505503997410
O          -1.04795257443227    2.16574992100360    0.66497840702016
H          -1.21947672580957    3.09330615731358    0.83400777203997
O          -1.22142153427562    0.96065728431974   -1.78197752011323
H          -1.18808783234421    1.48077852242323   -0.95685026258851
O           0.29659084034150   -2.42414196606988   -0.83432041419348
H           0.57716878835252   -2.07013569947398    0.02988241728085
O          -2.25513402923327   -1.38243908560905   -0.77058287827373
H          -1.72770003796540    0.15850413905804   -1.55927918184858
H          -2.11192371905225   -1.04558418145231    0.16132430828533
H          -3.10900107274568   -1.81529763498109   -0.77397948492728
O          -1.71452841187587   -0.38120812048481    1.57253654772719
H          -1.74456450187177    0.57534792358206    1.42438075612042
H          -0.66216474874914   -2.25335146911267   -0.87365361537446
H          -0.75991052635252   -0.59155457260511    1.61295127290565
N           1.14744001219544   -0.19504562641823   -1.93617432511986
H           1.65404507118181   -0.17202534475144   -2.81347509520598
H           0.24097194885107    0.35670361487001   -1.98843912931780
H           0.88640244043718   -1.18592138413834   -1.64715681245448
H           1.73405195868550    0.20320301768944   -1.14667521490834
