    26
        -50.47250316  Gyration_radius:  2.48725722202 Dipole_moment: 2.881
 S           1.23558307601074    1.87989737150332    0.28703013258352
O           1.25167846114777    0.87386120751719   -0.75752881789217
O           1.50855998064020    1.30743193880885    1.59969253420382
O           0.03510276220851    2.69389109793873    0.28724679797171
O           2.43543189727418    2.86417222571255   -0.03110580285404
H           2.27111213597608    3.56083041916456    0.59513400649159
H          -1.29824734936043    1.82618061641078    0.37895978994583
O          -1.64250578510222   -1.33585001701093    1.05218423576988
H          -1.89300567485633   -0.40861353588378    0.87914157513819
O           1.67290464232133   -1.79223148633136   -0.80749161562667
H           1.72341786007437   -0.83384958025824   -0.97963725242523
O          -2.11948248545439    1.26782394354995    0.37202079024604
H          -2.81391776432277    1.81586470085379    0.74052733766073
O          -1.04138596561962    0.45919410963058   -2.06423650718063
H           0.80835157083121   -2.06397027613348   -1.16644236660233
H          -1.65717527535409    0.81852827807804   -1.40873365900549
H          -0.15674436103109    0.71121378179062   -1.73101788392036
O          -0.97500178022859   -2.08563619289174   -1.51287668211485
H          -1.37980809051250   -2.60194709947933   -2.21004714327710
H          -1.02109551929226   -1.12921362465823   -1.80557704015465
H          -1.54164293207445   -1.74287938220544    0.17284246465218
N           0.92751298405282   -1.23345634293181    1.64992191536771
H           1.34121004097079   -1.59995216214509    0.73989386880509
H           1.18897787592285   -0.20656127846058    1.70641184213947
H          -0.12829184341904   -1.30394483064243    1.55553924291752
H           1.26846150919666   -1.74078387190661    2.45814824715966
