    26
        -50.47250313  Gyration_radius:  2.48730686087 Dipole_moment: 2.884
 S           0.08404345375705    2.21228111296530    0.49297769209887
O           0.14297558196496    1.51079045983850   -0.77502237040866
O           1.15933659202111    1.80772573487897    1.39054199900723
O          -1.21527831504147    2.14080249477513    1.13348153753440
O           0.32852742442258    3.74201112794465    0.16156952216340
H           0.13238703103916    4.14443019960801    1.00068698291197
H          -1.71848401529434    0.64323481337743    1.34017829559155
O          -0.06639408165993   -2.13693042402199    1.00778800522447
H          -0.79934823872636   -1.53423693823344    1.23581007074971
O           1.78662911413492   -0.35381435245472   -1.82825372970827
H           1.25981691352549    0.45343808006811   -1.68120755419821
O          -2.04420958081962   -0.29278775978322    1.40371067688216
H          -2.67216980816360   -0.30481133738985    2.12751685951212
O          -1.91786407614868   -0.08247391398431   -1.36928792366752
H          -1.24541823877371    0.62009245835048   -1.26288490727587
H           1.12810392432119   -1.05813854921387   -1.97091768368112
H          -2.26443356383952   -0.22171388594070   -0.47571084500427
O          -0.33105072773258   -2.11579122836448   -1.73321301902248
H          -0.17494077616457   -2.32509476143759    0.05799989956250
H          -0.67834519107038   -2.71205277360079   -2.39677096609960
H          -0.98077304096334   -1.35696478221771   -1.66630227570755
N           2.04410096217120   -0.56680692040161    0.77848056227402
H           2.13142274742591   -0.53249818647148   -0.28207259652952
H           1.74035329239551    0.40233125496544    1.08606552510647
H           1.25863063072535   -1.24755647074664    0.99831357195583
H           2.91238198648897   -0.83546546249555    1.22652268072102
